34
  Marvin  11101114192D          

 34 35  0  0  1  0            999 V2000
    3.5818  -11.3014    0.0000 C   0  0  0  0  0  0  0  0  0  0  0  0
    4.3389  -11.6292    0.0000 C   0  0  0  0  0  0  0  0  0  0  0  0
    5.0013  -11.1375    0.0000 C   0  0  0  0  0  0  0  0  0  0  0  0
    5.7584  -11.4653    0.0000 C   0  0  0  0  0  0  0  0  0  0  0  0
    6.4208  -10.9736    0.0000 C   0  0  0  0  0  0  0  0  0  0  0  0
    7.1779  -11.3014    0.0000 C   0  0  0  0  0  0  0  0  0  0  0  0
    7.8403  -10.8097    0.0000 C   0  0  0  0  0  0  0  0  0  0  0  0
    8.5974  -11.1375    0.0000 C   0  0  0  0  0  0  0  0  0  0  0  0
    9.2598  -10.6458    0.0000 C   0  0  0  0  0  0  0  0  0  0  0  0
   10.0169  -10.9736    0.0000 C   0  0  0  0  0  0  0  0  0  0  0  0
   10.6793  -10.4819    0.0000 C   0  0  0  0  0  0  0  0  0  0  0  0
   11.4364  -10.8097    0.0000 C   0  0  0  0  0  0  0  0  0  0  0  0
   12.0988  -10.3179    0.0000 C   0  0  0  0  0  0  0  0  0  0  0  0
   12.8559  -10.6458    0.0000 C   0  0  0  0  0  0  0  0  0  0  0  0
   13.5184  -10.1540    0.0000 C   0  0  0  0  0  0  0  0  0  0  0  0
   14.2754  -10.4819    0.0000 C   0  0  0  0  0  0  0  0  0  0  0  0
   14.3701  -11.3014    0.0000 O   0  0  0  0  0  0  0  0  0  0  0  0
   14.9379   -9.9901    0.0000 N   0  0  0  0  0  0  0  0  0  0  0  0
   15.6949  -10.3179    0.0000 C   0  0  2  0  0  0  0  0  0  0  0  0
   16.3574   -9.8262    0.0000 C   0  0  0  0  0  0  0  0  0  0  0  0
   16.2627   -9.0067    0.0000 N   0  0  0  0  0  0  0  0  0  0  0  0
   15.5057   -8.6788    0.0000 C   0  0  0  0  0  0  0  0  0  0  0  0
   15.4110   -7.8593    0.0000 C   0  0  0  0  0  0  0  0  0  0  0  0
   16.0735   -7.3675    0.0000 O   0  0  0  0  0  0  0  0  0  0  0  0
   16.8305   -7.6954    0.0000 C   0  0  0  0  0  0  0  0  0  0  0  0
   16.9252   -8.5149    0.0000 C   0  0  0  0  0  0  0  0  0  0  0  0
   15.7896  -11.1375    0.0000 C   0  0  2  0  0  0  0  0  0  0  0  0
   15.1271  -11.6292    0.0000 O   0  0  0  0  0  0  0  0  0  0  0  0
   16.5466  -11.4653    0.0000 C   0  0  0  0  0  0  0  0  0  0  0  0
   17.2091  -10.9736    0.0000 C   0  0  0  0  0  0  0  0  0  0  0  0
   17.9662  -11.3014    0.0000 C   0  0  0  0  0  0  0  0  0  0  0  0
   18.0608  -12.1210    0.0000 C   0  0  0  0  0  0  0  0  0  0  0  0
   17.3983  -12.6127    0.0000 C   0  0  0  0  0  0  0  0  0  0  0  0
   16.6413  -12.2849    0.0000 C   0  0  0  0  0  0  0  0  0  0  0  0
  1  2  1  0  0  0  0
  2  3  1  0  0  0  0
  3  4  1  0  0  0  0
  4  5  1  0  0  0  0
  5  6  1  0  0  0  0
  6  7  1  0  0  0  0
  7  8  1  0  0  0  0
  8  9  1  0  0  0  0
  9 10  1  0  0  0  0
 10 11  1  0  0  0  0
 11 12  1  0  0  0  0
 12 13  1  0  0  0  0
 13 14  1  0  0  0  0
 14 15  1  0  0  0  0
 15 16  1  0  0  0  0
 16 17  2  0  0  0  0
 16 18  1  0  0  0  0
 19 18  1  6  0  0  0
 19 20  1  0  0  0  0
 20 21  1  0  0  0  0
 21 22  1  0  0  0  0
 22 23  1  0  0  0  0
 23 24  1  0  0  0  0
 24 25  1  0  0  0  0
 25 26  1  0  0  0  0
 21 26  1  0  0  0  0
 19 27  1  0  0  0  0
 27 28  1  1  0  0  0
 27 29  1  0  0  0  0
 29 30  4  0  0  0  0
 30 31  4  0  0  0  0
 31 32  4  0  0  0  0
 32 33  4  0  0  0  0
 33 34  4  0  0  0  0
 29 34  4  0  0  0  0
M  END

> <ChembankId>
34

> <SMILES>
CCCCCCCCCCCCCCCC(=O)N[C@H](CN1CCOCC1)[C@H](O)c2ccccc2

> <InChI>
1/C29H50N2O3/c1-2-3-4-5-6-7-8-9-10-11-12-13-17-20-28(32)30-27(25-31-21-23-34-24-22-31)29(33)26-18-15-14-16-19-26/h14-16,18-19,27,29,33H,2-13,17,20-25H2,1H3,(H,30,32)

$$$$
373
  Marvin  11101114192D          

 23 24  0  0  0  0            999 V2000
    0.7145    1.2375    0.0000 C   0  0  0  0  0  0  0  0  0  0  0  0
    0.0000    0.8250    0.0000 C   0  0  0  0  0  0  0  0  0  0  0  0
    0.0000   -0.0000    0.0000 C   0  0  0  0  0  0  0  0  0  0  0  0
   -0.7145   -0.4125    0.0000 C   0  0  0  0  0  0  0  0  0  0  0  0
   -0.7145   -1.2375    0.0000 C   0  0  0  0  0  0  0  0  0  0  0  0
    0.0000   -1.6500    0.0000 C   0  0  0  0  0  0  0  0  0  0  0  0
    0.0000   -2.4750    0.0000 C   0  0  0  0  0  0  0  0  0  0  0  0
   -0.7145   -2.8875    0.0000 C   0  0  0  0  0  0  0  0  0  0  0  0
   -1.4289   -2.4750    0.0000 C   0  0  0  0  0  0  0  0  0  0  0  0
   -2.1434   -2.8875    0.0000 O   0  0  0  0  0  0  0  0  0  0  0  0
   -2.1434   -3.7125    0.0000 C   0  0  0  0  0  0  0  0  0  0  0  0
   -1.4289   -4.1250    0.0000 C   0  0  0  0  0  0  0  0  0  0  0  0
   -1.4289   -4.9500    0.0000 C   0  0  0  0  0  0  0  0  0  0  0  0
   -2.1434   -5.3625    0.0000 C   0  0  0  0  0  0  0  0  0  0  0  0
   -2.1434   -6.1875    0.0000 F   0  0  0  0  0  0  0  0  0  0  0  0
   -2.8579   -4.9500    0.0000 C   0  0  0  0  0  0  0  0  0  0  0  0
   -2.8579   -4.1250    0.0000 C   0  0  0  0  0  0  0  0  0  0  0  0
   -1.4289   -1.6500    0.0000 C   0  0  0  0  0  0  0  0  0  0  0  0
   -0.7145    1.2375    0.0000 N   0  0  0  0  0  0  0  0  0  0  0  0
   -1.4289    0.8250    0.0000 O   0  0  0  0  0  0  0  0  0  0  0  0
   -0.7145    2.0625    0.0000 C   0  0  0  0  0  0  0  0  0  0  0  0
   -1.4289    2.4750    0.0000 O   0  0  0  0  0  0  0  0  0  0  0  0
    0.0000    2.4750    0.0000 N   0  0  0  0  0  0  0  0  0  0  0  0
  1  2  1  0  0  0  0
  2  3  1  0  0  0  0
  3  4  2  0  0  0  0
  4  5  1  0  0  0  0
  5  6  4  0  0  0  0
  6  7  4  0  0  0  0
  7  8  4  0  0  0  0
  8  9  4  0  0  0  0
  9 10  1  0  0  0  0
 10 11  1  0  0  0  0
 11 12  4  0  0  0  0
 12 13  4  0  0  0  0
 13 14  4  0  0  0  0
 14 15  1  0  0  0  0
 14 16  4  0  0  0  0
 16 17  4  0  0  0  0
 11 17  4  0  0  0  0
  9 18  4  0  0  0  0
  5 18  4  0  0  0  0
  2 19  1  0  0  0  0
 19 20  1  0  0  0  0
 19 21  1  0  0  0  0
 21 22  2  0  0  0  0
 21 23  1  0  0  0  0
M  END

> <ChembankId>
373

> <SMILES>
CC(/C=C/c1cccc(Oc2ccc(F)cc2)c1)N(O)C(=O)N

> <InChI>
1/C17H17FN2O3/c1-12(20(22)17(19)21)5-6-13-3-2-4-16(11-13)23-15-9-7-14(18)8-10-15/h2-12,22H,1H3,(H2,19,21)

$$$$
1000094
  Marvin  11101114192D          

 30 32  0  0  1  0            999 V2000
    2.8579    0.0000    0.0000 C   0  0  0  0  0  0  0  0  0  0  0  0
    3.5724   -0.4125    0.0000 C   0  0  0  0  0  0  0  0  0  0  0  0
    4.2868    0.0000    0.0000 C   0  0  0  0  0  0  0  0  0  0  0  0
    4.6993   -0.7145    0.0000 C   0  0  0  0  0  0  0  0  0  0  0  0
    3.8743    0.7145    0.0000 C   0  0  0  0  0  0  0  0  0  0  0  0
    5.0013    0.4125    0.0000 C   0  0  0  0  0  0  0  0  0  0  0  0
    5.0013    1.2375    0.0000 O   0  0  0  0  0  0  0  0  0  0  0  0
    5.7158    0.0000    0.0000 O   0  0  0  0  0  0  0  0  0  0  0  0
    6.4302    0.4125    0.0000 C   0  0  1  0  0  0  0  0  0  0  0  0
    6.4302    1.2375    0.0000 C   0  0  0  0  0  0  0  0  0  0  0  0
    7.1447    1.6500    0.0000 C   0  0  1  0  0  0  0  0  0  0  0  0
    7.1447    2.4750    0.0000 C   0  0  0  0  0  0  0  0  0  0  0  0
    7.8592    1.2375    0.0000 C   0  0  0  0  0  0  0  0  0  0  0  0
    7.8592    0.4125    0.0000 C   0  0  0  0  0  0  0  0  0  0  0  0
    8.5737    0.0000    0.0000 C   0  0  0  0  0  0  0  0  0  0  0  0
    8.5737   -0.8250    0.0000 C   0  0  0  0  0  0  0  0  0  0  0  0
    7.8592   -1.2375    0.0000 C   0  0  2  0  0  0  0  0  0  0  0  0
    7.8592   -2.0625    0.0000 C   0  0  0  0  0  0  0  0  0  0  0  0
    7.1447   -0.8250    0.0000 C   0  0  2  0  0  0  0  0  0  0  0  0
    6.4302   -1.2375    0.0000 C   0  0  0  0  0  0  0  0  0  0  0  0
    6.4302   -2.0625    0.0000 C   0  0  0  0  0  0  0  0  0  0  0  0
    5.7158   -2.4750    0.0000 C   0  0  2  0  0  0  0  0  0  0  0  0
    5.0013   -2.0625    0.0000 C   0  0  0  0  0  0  0  0  0  0  0  0
    4.2868   -2.4750    0.0000 C   0  0  1  0  0  0  0  0  0  0  0  0
    3.5724   -2.0625    0.0000 O   0  0  0  0  0  0  0  0  0  0  0  0
    4.2868   -3.3000    0.0000 C   0  0  0  0  0  0  0  0  0  0  0  0
    5.0013   -3.7125    0.0000 C   0  0  0  0  0  0  0  0  0  0  0  0
    5.0013   -4.5375    0.0000 O   0  0  0  0  0  0  0  0  0  0  0  0
    5.7158   -3.3000    0.0000 O   0  0  0  0  0  0  0  0  0  0  0  0
    7.1447    0.0000    0.0000 C   0  0  1  0  0  0  0  0  0  0  0  0
  1  2  1  0  0  0  0
  2  3  1  0  0  0  0
  3  4  1  0  0  0  0
  3  5  1  0  0  0  0
  3  6  1  0  0  0  0
  6  7  2  0  0  0  0
  6  8  1  0  0  0  0
  9  8  1  1  0  0  0
  9 10  1  0  0  0  0
 10 11  1  0  0  0  0
 11 12  1  1  0  0  0
 11 13  1  0  0  0  0
 13 14  2  0  0  0  0
 14 15  1  0  0  0  0
 15 16  2  0  0  0  0
 16 17  1  0  0  0  0
 17 18  1  6  0  0  0
 17 19  1  0  0  0  0
 19 20  1  6  0  0  0
 20 21  1  0  0  0  0
 22 21  1  1  0  0  0
 22 23  1  0  0  0  0
 23 24  1  0  0  0  0
 24 25  1  6  0  0  0
 24 26  1  0  0  0  0
 26 27  1  0  0  0  0
 27 28  2  0  0  0  0
 27 29  1  0  0  0  0
 22 29  1  0  0  0  0
 19 30  1  0  0  0  0
  9 30  1  0  0  0  0
 30 14  1  1  0  0  0
M  END

> <ChembankId>
1000094

> <SMILES>
CCC(C)(C)C(=O)O[C@H]1C[C@@H](C)C=C2C=C[C@H](C)[C@H](CC[C@@H]3C[C@@H](O)CC(=O)O3)[C@@H]12

> <InChI>
1/C25H38O5/c1-6-25(4,5)24(28)30-21-12-15(2)11-17-8-7-16(3)20(23(17)21)10-9-19-13-18(26)14-22(27)29-19/h7-8,11,15-16,18-21,23,26H,6,9-10,12-14H2,1-5H3

$$$$
1047041
  Marvin  11101114192D          

 21 23  0  0  0  0            999 V2000
    0.0000    0.0000    0.0000 O   0  0  0  0  0  0  0  0  0  0  0  0
    0.7145   -0.4125    0.0000 C   0  0  0  0  0  0  0  0  0  0  0  0
    1.4289    0.0000    0.0000 C   0  0  0  0  0  0  0  0  0  0  0  0
    2.1434   -0.4125    0.0000 C   0  0  0  0  0  0  0  0  0  0  0  0
    2.8579    0.0000    0.0000 C   0  0  0  0  0  0  0  0  0  0  0  0
    2.8579    0.8250    0.0000 O   0  0  0  0  0  0  0  0  0  0  0  0
    3.5724   -0.4125    0.0000 C   0  0  0  0  0  0  0  0  0  0  0  0
    3.5724   -1.2375    0.0000 C   0  0  0  0  0  0  0  0  0  0  0  0
    4.2868   -1.6500    0.0000 O   0  0  0  0  0  0  0  0  0  0  0  0
    2.8579   -1.6500    0.0000 C   0  0  0  0  0  0  0  0  0  0  0  0
    2.1434   -1.2375    0.0000 C   0  0  0  0  0  0  0  0  0  0  0  0
    1.4289   -1.6500    0.0000 O   0  0  0  0  0  0  0  0  0  0  0  0
    0.7145   -1.2375    0.0000 C   0  0  0  0  0  0  0  0  0  0  0  0
    0.0000   -1.6500    0.0000 C   0  0  0  0  0  0  0  0  0  0  0  0
    0.0000   -2.4750    0.0000 C   0  0  0  0  0  0  0  0  0  0  0  0
   -0.7145   -2.8875    0.0000 C   0  0  0  0  0  0  0  0  0  0  0  0
   -1.4289   -2.4750    0.0000 C   0  0  0  0  0  0  0  0  0  0  0  0
   -2.1434   -2.8875    0.0000 O   0  0  0  0  0  0  0  0  0  0  0  0
   -1.4289   -1.6500    0.0000 C   0  0  0  0  0  0  0  0  0  0  0  0
   -2.1434   -1.2375    0.0000 O   0  0  0  0  0  0  0  0  0  0  0  0
   -0.7145   -1.2375    0.0000 C   0  0  0  0  0  0  0  0  0  0  0  0
  1  2  1  0  0  0  0
  2  3  1  0  0  0  0
  3  4  1  0  0  0  0
  4  5  4  0  0  0  0
  5  6  1  0  0  0  0
  5  7  4  0  0  0  0
  7  8  4  0  0  0  0
  8  9  1  0  0  0  0
  8 10  4  0  0  0  0
 10 11  4  0  0  0  0
  4 11  4  0  0  0  0
 11 12  1  0  0  0  0
 12 13  1  0  0  0  0
  2 13  1  0  0  0  0
 13 14  1  0  0  0  0
 14 15  4  0  0  0  0
 15 16  4  0  0  0  0
 16 17  4  0  0  0  0
 17 18  1  0  0  0  0
 17 19  4  0  0  0  0
 19 20  1  0  0  0  0
 19 21  4  0  0  0  0
 14 21  4  0  0  0  0
M  END

> <ChembankId>
1047041

> <SMILES>
OC1Cc2c(O)cc(O)cc2OC1c3ccc(O)c(O)c3

> <InChI>
1/C15H14O6/c16-8-4-11(18)9-6-13(20)15(21-14(9)5-8)7-1-2-10(17)12(19)3-7/h1-5,13,15-20H,6H2

$$$$
1048
  Marvin  11101114192D          

 23 25  0  0  0  0            999 V2000
    2.1434   -2.8875    0.0000 C   0  0  0  0  0  0  0  0  0  0  0  0
    1.4289   -2.4750    0.0000 C   0  0  0  0  0  0  0  0  0  0  0  0
    1.4289   -1.6500    0.0000 N   0  0  0  0  0  0  0  0  0  0  0  0
    0.7145   -1.2375    0.0000 C   0  0  0  0  0  0  0  0  0  0  0  0
    0.7145   -0.4125    0.0000 C   0  0  0  0  0  0  0  0  0  0  0  0
    0.0000    0.0000    0.0000 C   0  0  0  0  0  0  0  0  0  0  0  0
   -0.7145   -0.4125    0.0000 O   0  0  0  0  0  0  0  0  0  0  0  0
    0.0000    0.8250    0.0000 O   0  0  0  0  0  0  0  0  0  0  0  0
    1.4289    0.0000    0.0000 C   0  0  0  0  0  0  0  0  0  0  0  0
    1.4289    0.8250    0.0000 O   0  0  0  0  0  0  0  0  0  0  0  0
    2.1434   -0.4125    0.0000 C   0  0  0  0  0  0  0  0  0  0  0  0
    2.8579    0.0000    0.0000 C   0  0  0  0  0  0  0  0  0  0  0  0
    3.5724   -0.4125    0.0000 C   0  0  0  0  0  0  0  0  0  0  0  0
    4.2868   -0.0000    0.0000 F   0  0  0  0  0  0  0  0  0  0  0  0
    3.5724   -1.2375    0.0000 C   0  0  0  0  0  0  0  0  0  0  0  0
    2.8579   -1.6500    0.0000 N   0  0  0  0  0  0  0  0  0  0  0  0
    2.1434   -1.2375    0.0000 C   0  0  0  0  0  0  0  0  0  0  0  0
    4.2868   -1.6500    0.0000 N   0  0  0  0  0  0  0  0  0  0  0  0
    5.0013   -1.2375    0.0000 C   0  0  0  0  0  0  0  0  0  0  0  0
    5.7158   -1.6500    0.0000 C   0  0  0  0  0  0  0  0  0  0  0  0
    5.7158   -2.4750    0.0000 N   0  0  0  0  0  0  0  0  0  0  0  0
    5.0013   -2.8875    0.0000 C   0  0  0  0  0  0  0  0  0  0  0  0
    4.2868   -2.4750    0.0000 C   0  0  0  0  0  0  0  0  0  0  0  0
  1  2  1  0  0  0  0
  2  3  1  0  0  0  0
  3  4  4  0  0  0  0
  4  5  4  0  0  0  0
  5  6  1  0  0  0  0
  6  7  2  0  0  0  0
  6  8  1  0  0  0  0
  5  9  4  0  0  0  0
  9 10  2  0  0  0  0
  9 11  4  0  0  0  0
 11 12  4  0  0  0  0
 12 13  4  0  0  0  0
 13 14  1  0  0  0  0
 13 15  4  0  0  0  0
 15 16  4  0  0  0  0
 16 17  4  0  0  0  0
  3 17  4  0  0  0  0
 11 17  4  0  0  0  0
 15 18  1  0  0  0  0
 18 19  1  0  0  0  0
 19 20  1  0  0  0  0
 20 21  1  0  0  0  0
 21 22  1  0  0  0  0
 22 23  1  0  0  0  0
 18 23  1  0  0  0  0
M  END

> <ChembankId>
1048

> <SMILES>
CCn1cc(C(=O)O)c(=O)c2cc(F)c(nc12)N3CCNCC3

> <InChI>
1/C15H17FN4O3/c1-2-19-8-10(15(22)23)12(21)9-7-11(16)14(18-13(9)19)20-5-3-17-4-6-20/h7-8,17H,2-6H2,1H3,(H,22,23)

$$$$
3103894
  Marvin  11101114192D          

 35 38  0  0  1  0            999 V2000
   -0.7663   -1.2934    0.0000 C   0  0  0  0  0  0  0  0  0  0  0  0
   -0.0000   -1.6500    0.0000 C   0  0  1  0  0  0  0  0  0  0  0  0
    0.7145   -1.2375    0.0000 C   0  0  0  0  0  0  0  0  0  0  0  0
    0.8860   -0.4305    0.0000 C   0  0  2  0  0  0  0  0  0  0  0  0
    0.3039    0.1959    0.0000 C   0  0  0  0  0  0  0  0  0  0  0  0
    0.5889    0.9672    0.0000 C   0  0  0  0  0  0  0  0  0  0  0  0
    0.0617    1.6017    0.0000 C   0  0  0  0  0  0  0  0  0  0  0  0
    0.3476    2.3756    0.0000 C   0  0  0  0  0  0  0  0  0  0  0  0
    1.1607    2.5149    0.0000 C   0  0  0  0  0  0  0  0  0  0  0  0
    1.6880    1.8804    0.0000 C   0  0  0  0  0  0  0  0  0  0  0  0
    1.4021    1.1065    0.0000 C   0  0  0  0  0  0  0  0  0  0  0  0
    1.7065   -0.3443    0.0000 N   0  0  0  0  0  0  0  0  0  0  0  0
    1.8166   -1.0376    0.0000 C   0  0  0  0  0  0  0  0  0  0  0  0
    2.6903   -1.2570    0.0000 O   0  0  0  0  0  0  0  0  0  0  0  0
    1.4289   -1.6500    0.0000 C   0  0  2  0  0  0  0  0  0  0  0  0
    2.1434   -1.2375    0.0000 O   0  0  0  0  0  0  0  0  0  0  0  0
    2.1434   -0.4125    0.0000 C   0  0  0  0  0  0  0  0  0  0  0  0
    3.1320   -0.0444    0.0000 O   0  0  0  0  0  0  0  0  0  0  0  0
    2.8579   -0.0000    0.0000 C   0  0  0  0  0  0  0  0  0  0  0  0
    3.5724   -0.4125    0.0000 C   0  0  0  0  0  0  0  0  0  0  0  0
    3.5724   -1.2375    0.0000 C   0  0  2  0  0  0  0  0  0  0  0  0
    4.1571   -1.9769    0.0000 O   0  0  0  0  0  0  0  0  0  0  0  0
    4.2868   -1.6500    0.0000 C   0  0  0  0  0  0  0  0  0  0  0  0
    4.2868   -2.4750    0.0000 C   0  0  0  0  0  0  0  0  0  0  0  0
    3.5724   -2.8875    0.0000 C   0  0  0  0  0  0  0  0  0  0  0  0
    3.5724   -3.7125    0.0000 C   0  0  1  0  0  0  0  0  0  0  0  0
    4.2372   -4.2290    0.0000 C   0  0  0  0  0  0  0  0  0  0  0  0
    2.8579   -4.1250    0.0000 C   0  0  0  0  0  0  0  0  0  0  0  0
    2.1434   -3.7125    0.0000 C   0  0  0  0  0  0  0  0  0  0  0  0
    2.1434   -2.8875    0.0000 C   0  0  0  0  0  0  0  0  0  0  0  0
    1.4289   -2.4750    0.0000 C   0  0  1  0  0  0  0  0  0  0  0  0
    0.7145   -2.8875    0.0000 C   0  0  2  0  0  0  0  0  0  0  0  0
    0.4768   -3.7176    0.0000 O   0  0  0  0  0  0  0  0  0  0  0  0
   -0.0000   -2.4750    0.0000 C   0  0  0  0  0  0  0  0  0  0  0  0
   -0.7363   -2.8902    0.0000 C   0  0  0  0  0  0  0  0  0  0  0  0
  2  1  1  1  0  0  0
  2  3  1  0  0  0  0
  3  4  1  0  0  0  0
  4  5  1  6  0  0  0
  5  6  1  0  0  0  0
  6  7  4  0  0  0  0
  7  8  4  0  0  0  0
  8  9  4  0  0  0  0
  9 10  4  0  0  0  0
 10 11  4  0  0  0  0
  6 11  4  0  0  0  0
  4 12  1  0  0  0  0
 12 13  1  0  0  0  0
 13 14  2  0  0  0  0
 15 13  1  1  0  0  0
  3 15  1  0  0  0  0
 15 16  1  0  0  0  0
 16 17  1  0  0  0  0
 17 18  2  0  0  0  0
 17 19  1  0  0  0  0
 19 20  2  0  0  0  0
 20 21  1  0  0  0  0
 21 22  1  1  0  0  0
 21 23  1  0  0  0  0
 23 24  1  0  0  0  0
 24 25  1  0  0  0  0
 25 26  1  0  0  0  0
 26 27  1  1  0  0  0
 26 28  1  0  0  0  0
 28 29  1  0  0  0  0
 29 30  2  0  0  0  0
 31 30  1  1  0  0  0
 15 31  1  0  0  0  0
 31 32  1  0  0  0  0
 32 33  1  6  0  0  0
 32 34  1  0  0  0  0
  2 34  1  0  0  0  0
 34 35  2  0  0  0  0
M  END

> <ChembankId>
3103894

> <SMILES>
C[C@H]1[C@H]2[C@H](Cc3ccccc3)NC(=O)[C@@]42OC(=O)/C=C/[C@H](O)CCC[C@@H](C)C\C=C\[C@H]4[C@H](O)C1=C

> <InChI>
1/C29H37NO5/c1-18-9-7-13-22(31)15-16-25(32)35-29-23(14-8-10-18)27(33)20(3)19(2)26(29)24(30-28(29)34)17-21-11-5-4-6-12-21/h4-6,8,11-12,14-16,18-19,22-24,26-27,31,33H,3,7,9-10,13,17H2,1-2H3,(H,30,34)

$$$$
2060138
  Marvin  11101114192D          

 25 29  0  0  1  0            999 V2000
    2.0754   -1.5962    0.0000 C   0  0  0  0  0  0  0  0  0  0  0  0
    2.3392   -0.8145    0.0000 C   0  0  1  0  0  0  0  0  0  0  0  0
    1.7539   -1.2210    0.0000 C   0  0  0  0  0  0  0  0  0  0  0  0
    0.9248   -1.2927    0.0000 C   0  0  2  0  0  0  0  0  0  0  0  0
    0.5158   -2.0092    0.0000 C   0  0  0  0  0  0  0  0  0  0  0  0
   -0.3092   -2.0133    0.0000 O   0  0  0  0  0  0  0  0  0  0  0  0
    0.9318   -2.7217    0.0000 O   0  0  0  0  0  0  0  0  0  0  0  0
    0.5600   -0.5322    0.0000 C   0  0  1  0  0  0  0  0  0  0  0  0
   -0.2932   -0.8033    0.0000 C   0  0  0  0  0  0  0  0  0  0  0  0
   -0.8423   -0.1193    0.0000 C   0  0  0  0  0  0  0  0  0  0  0  0
   -1.6666   -0.1514    0.0000 C   0  0  0  0  0  0  0  0  0  0  0  0
   -0.3573    0.5917    0.0000 C   0  0  1  0  0  0  0  0  0  0  0  0
   -0.9779    1.1352    0.0000 O   0  0  0  0  0  0  0  0  0  0  0  0
    0.1446    0.0432    0.0000 C   0  0  0  0  0  0  0  0  0  0  0  0
    1.2372    0.0393    0.0000 C   0  0  1  0  0  0  0  0  0  0  0  0
    1.1073    0.9079    0.0000 C   0  0  0  0  0  0  0  0  0  0  0  0
    0.2863    1.1687    0.0000 C   0  0  0  0  0  0  0  0  0  0  0  0
    1.9408   -0.4174    0.0000 C   0  0  1  0  0  0  0  0  0  0  0  0
    1.4633    0.3239    0.0000 O   0  0  0  0  0  0  0  0  0  0  0  0
    2.0605   -0.0885    0.0000 C   0  0  0  0  0  0  0  0  0  0  0  0
    2.7090    0.4216    0.0000 O   0  0  0  0  0  0  0  0  0  0  0  0
    3.2655   -0.8841    0.0000 C   0  0  1  0  0  0  0  0  0  0  0  0
    3.7549   -1.5483    0.0000 O   0  0  0  0  0  0  0  0  0  0  0  0
    3.4511   -0.0762    0.0000 C   0  0  0  0  0  0  0  0  0  0  0  0
    2.9108   -0.4741    0.0000 C   0  0  0  0  0  0  0  0  0  0  0  0
  2  1  1  1  0  0  0
  2  3  1  0  0  0  0
  3  4  1  0  0  0  0
  4  5  1  6  0  0  0
  5  6  2  0  0  0  0
  5  7  1  0  0  0  0
  4  8  1  0  0  0  0
  8  9  1  0  0  0  0
  9 10  1  0  0  0  0
 10 11  2  0  0  0  0
 10 12  1  0  0  0  0
 12 13  1  1  0  0  0
 12 14  1  0  0  0  0
  8 14  1  1  0  0  0
  8 15  1  0  0  0  0
 15 16  1  1  0  0  0
 16 17  1  0  0  0  0
 12 17  1  0  0  0  0
 15 18  1  0  0  0  0
  3 18  1  0  0  0  0
 18 19  1  1  0  0  0
 19 20  1  0  0  0  0
  2 20  1  0  0  0  0
 20 21  2  0  0  0  0
  2 22  1  0  0  0  0
 22 23  1  6  0  0  0
 22 24  1  0  0  0  0
 24 25  2  0  0  0  0
 18 25  1  0  0  0  0
M  END

> <ChembankId>
2060138

> <SMILES>
C[C@]1([C@H]2[C@H](C(=O)O)[C@]3(CC(=C)[C@@]4(O)C3)[C@@H](CC4)[C@]52OC1=O)[C@@H](O)C=C5

> <InChI>
1/C19H22O6/c1-9-7-17-8-18(9,24)5-3-10(17)19-6-4-11(20)16(2,15(23)25-19)13(19)12(17)14(21)22/h4,6,10-13,20,24H,1,3,5,7-8H2,2H3,(H,21,22)

$$$$
199
  Marvin  11101114192D          

 22 22  0  0  1  0            999 V2000
    2.1434   -1.2375    0.0000 C   0  0  0  0  0  0  0  0  0  0  0  0
    1.4289   -1.6500    0.0000 C   0  0  2  0  0  0  0  0  0  0  0  0
    1.4289   -2.4750    0.0000 C   0  0  0  0  0  0  0  0  0  0  0  0
    0.7145   -2.8875    0.0000 C   0  0  0  0  0  0  0  0  0  0  0  0
   -0.0000   -2.4750    0.0000 C   0  0  0  0  0  0  0  0  0  0  0  0
    0.7145   -3.7125    0.0000 C   0  0  0  0  0  0  0  0  0  0  0  0
   -0.0000   -4.1250    0.0000 C   0  0  0  0  0  0  0  0  0  0  0  0
   -0.0000   -4.9500    0.0000 C   0  0  0  0  0  0  0  0  0  0  0  0
    0.7145   -5.3625    0.0000 O   0  0  0  0  0  0  0  0  0  0  0  0
   -0.7145   -5.3625    0.0000 N   0  0  0  0  0  0  0  0  0  0  0  0
   -0.7145   -6.1875    0.0000 O   0  0  0  0  0  0  0  0  0  0  0  0
    0.7145   -1.2375    0.0000 C   0  0  0  0  0  0  0  0  0  0  0  0
    0.0000   -1.6500    0.0000 O   0  0  0  0  0  0  0  0  0  0  0  0
    0.7145   -0.4125    0.0000 C   0  0  0  0  0  0  0  0  0  0  0  0
   -0.0000    0.0000    0.0000 C   0  0  0  0  0  0  0  0  0  0  0  0
    0.0000    0.8250    0.0000 C   0  0  0  0  0  0  0  0  0  0  0  0
    0.7145    1.2375    0.0000 C   0  0  0  0  0  0  0  0  0  0  0  0
    1.4289    0.8250    0.0000 C   0  0  0  0  0  0  0  0  0  0  0  0
    1.4289    0.0000    0.0000 C   0  0  0  0  0  0  0  0  0  0  0  0
    0.7145    2.0625    0.0000 N   0  0  0  0  0  0  0  0  0  0  0  0
    0.0000    2.4750    0.0000 C   0  0  0  0  0  0  0  0  0  0  0  0
    1.4289    2.4750    0.0000 C   0  0  0  0  0  0  0  0  0  0  0  0
  2  1  1  6  0  0  0
  2  3  1  0  0  0  0
  3  4  2  0  0  0  0
  4  5  1  0  0  0  0
  4  6  1  0  0  0  0
  6  7  2  0  0  0  0
  7  8  1  0  0  0  0
  8  9  2  0  0  0  0
  8 10  1  0  0  0  0
 10 11  1  0  0  0  0
  2 12  1  0  0  0  0
 12 13  2  0  0  0  0
 12 14  1  0  0  0  0
 14 15  4  0  0  0  0
 15 16  4  0  0  0  0
 16 17  4  0  0  0  0
 17 18  4  0  0  0  0
 18 19  4  0  0  0  0
 14 19  4  0  0  0  0
 17 20  1  0  0  0  0
 20 21  1  0  0  0  0
 20 22  1  0  0  0  0
M  END

> <ChembankId>
199

> <SMILES>
C[C@H](/C=C(\C)/C=C/C(=O)NO)C(=O)c1ccc(cc1)N(C)C

> <InChI>
1/C17H22N2O3/c1-12(5-10-16(20)18-22)11-13(2)17(21)14-6-8-15(9-7-14)19(3)4/h5-11,13,22H,1-4H3,(H,18,20)

$$$$
320
  Marvin  11101114192D          

 38 41  0  0  0  0            999 V2000
    1.4289   -4.9500    0.0000 C   0  0  0  0  0  0  0  0  0  0  0  0
    1.4289   -4.1250    0.0000 C   0  0  0  0  0  0  0  0  0  0  0  0
    2.1434   -3.7125    0.0000 O   0  0  0  0  0  0  0  0  0  0  0  0
    0.7145   -3.7125    0.0000 C   0  0  0  0  0  0  0  0  0  0  0  0
    0.0000   -4.1250    0.0000 C   0  0  0  0  0  0  0  0  0  0  0  0
    0.0000   -4.9500    0.0000 O   0  0  0  0  0  0  0  0  0  0  0  0
   -0.7145   -3.7125    0.0000 C   0  0  0  0  0  0  0  0  0  0  0  0
   -1.4289   -4.1250    0.0000 C   0  0  0  0  0  0  0  0  0  0  0  0
   -0.7145   -2.8875    0.0000 C   0  0  0  0  0  0  0  0  0  0  0  0
   -1.4289   -2.4750    0.0000 O   0  0  0  0  0  0  0  0  0  0  0  0
    0.0000   -2.4750    0.0000 C   0  0  0  0  0  0  0  0  0  0  0  0
    0.0000   -1.6500    0.0000 C   0  0  0  0  0  0  0  0  0  0  0  0
    0.7145   -1.2375    0.0000 C   0  0  0  0  0  0  0  0  0  0  0  0
    0.7145   -0.4125    0.0000 C   0  0  0  0  0  0  0  0  0  0  0  0
    0.0000    0.0000    0.0000 O   0  0  0  0  0  0  0  0  0  0  0  0
    1.4289    0.0000    0.0000 C   0  0  0  0  0  0  0  0  0  0  0  0
    1.4289    0.8250    0.0000 C   0  0  0  0  0  0  0  0  0  0  0  0
    2.1434    1.2375    0.0000 O   0  0  0  0  0  0  0  0  0  0  0  0
    0.7145    1.2375    0.0000 C   0  0  0  0  0  0  0  0  0  0  0  0
    0.7145    2.0625    0.0000 C   0  0  0  0  0  0  0  0  0  0  0  0
    0.0000    2.4750    0.0000 C   0  0  0  0  0  0  0  0  0  0  0  0
   -0.7145    2.0625    0.0000 C   0  0  0  0  0  0  0  0  0  0  0  0
   -1.4289    2.4750    0.0000 C   0  0  0  0  0  0  0  0  0  0  0  0
   -1.4289    3.3000    0.0000 C   0  0  0  0  0  0  0  0  0  0  0  0
   -0.7145    3.7125    0.0000 C   0  0  0  0  0  0  0  0  0  0  0  0
    0.0000    3.3000    0.0000 C   0  0  0  0  0  0  0  0  0  0  0  0
    2.1434   -0.4125    0.0000 C   0  0  0  0  0  0  0  0  0  0  0  0
    2.8579    0.0000    0.0000 O   0  0  0  0  0  0  0  0  0  0  0  0
    3.5724   -0.4125    0.0000 C   0  0  0  0  0  0  0  0  0  0  0  0
    4.3848   -0.5558    0.0000 C   0  0  0  0  0  0  0  0  0  0  0  0
    3.8545    0.3627    0.0000 C   0  0  0  0  0  0  0  0  0  0  0  0
    3.5724   -1.2375    0.0000 C   0  0  0  0  0  0  0  0  0  0  0  0
    2.8579   -1.6500    0.0000 C   0  0  0  0  0  0  0  0  0  0  0  0
    2.1434   -1.2375    0.0000 C   0  0  0  0  0  0  0  0  0  0  0  0
    1.4289   -1.6500    0.0000 C   0  0  0  0  0  0  0  0  0  0  0  0
    1.4289   -2.4750    0.0000 O   0  0  0  0  0  0  0  0  0  0  0  0
    0.7145   -2.8875    0.0000 C   0  0  0  0  0  0  0  0  0  0  0  0
    1.5350   -2.9737    0.0000 O   0  0  0  0  0  0  0  0  0  0  0  0
  1  2  1  0  0  0  0
  2  3  2  0  0  0  0
  2  4  1  0  0  0  0
  4  5  4  0  0  0  0
  5  6  1  0  0  0  0
  5  7  4  0  0  0  0
  7  8  1  0  0  0  0
  7  9  4  0  0  0  0
  9 10  1  0  0  0  0
  9 11  4  0  0  0  0
 11 12  1  0  0  0  0
 12 13  1  0  0  0  0
 13 14  4  0  0  0  0
 14 15  1  0  0  0  0
 14 16  4  0  0  0  0
 16 17  1  0  0  0  0
 17 18  2  0  0  0  0
 17 19  1  0  0  0  0
 19 20  2  0  0  0  0
 20 21  1  0  0  0  0
 21 22  4  0  0  0  0
 22 23  4  0  0  0  0
 23 24  4  0  0  0  0
 24 25  4  0  0  0  0
 25 26  4  0  0  0  0
 21 26  4  0  0  0  0
 16 27  4  0  0  0  0
 27 28  1  0  0  0  0
 28 29  1  0  0  0  0
 29 30  1  0  0  0  0
 29 31  1  0  0  0  0
 29 32  1  0  0  0  0
 32 33  2  0  0  0  0
 33 34  1  0  0  0  0
 27 34  4  0  0  0  0
 34 35  4  0  0  0  0
 13 35  4  0  0  0  0
 35 36  1  0  0  0  0
 11 37  4  0  0  0  0
  4 37  4  0  0  0  0
 37 38  1  0  0  0  0
M  END

> <ChembankId>
320

> <SMILES>
CC(=O)c1c(O)c(C)c(O)c(Cc2c(O)c(C(=O)/C=C/c3ccccc3)c4OC(C)(C)C=Cc4c2O)c1O

> <InChI>
1/C30H28O8/c1-15-24(33)19(27(36)22(16(2)31)25(15)34)14-20-26(35)18-12-13-30(3,4)38-29(18)23(28(20)37)21(32)11-10-17-8-6-5-7-9-17/h5-13,33-37H,14H2,1-4H3

$$$$
2003
  Marvin  11101114192D          

 27 29  0  0  0  0            999 V2000
    0.1048    2.3134    0.0000 C   0  0  0  0  0  0  0  0  0  0  0  0
    0.8827    2.5882    0.0000 N   0  0  0  0  0  0  0  0  0  0  0  0
    1.5096    2.0518    0.0000 C   0  0  0  0  0  0  0  0  0  0  0  0
    2.2648    2.3839    0.0000 C   0  0  0  0  0  0  0  0  0  0  0  0
    2.9953    2.0006    0.0000 C   0  0  0  0  0  0  0  0  0  0  0  0
    3.1510    1.1904    0.0000 C   0  0  0  0  0  0  0  0  0  0  0  0
    3.9621    1.0394    0.0000 C   0  0  0  0  0  0  0  0  0  0  0  0
    4.2368    0.2615    0.0000 C   0  0  0  0  0  0  0  0  0  0  0  0
    5.0479    0.1105    0.0000 O   0  0  0  0  0  0  0  0  0  0  0  0
    5.3226   -0.6674    0.0000 C   0  0  0  0  0  0  0  0  0  0  0  0
    3.7005   -0.3654    0.0000 C   0  0  0  0  0  0  0  0  0  0  0  0
    3.9752   -1.1433    0.0000 O   0  0  0  0  0  0  0  0  0  0  0  0
    3.4389   -1.7702    0.0000 C   0  0  0  0  0  0  0  0  0  0  0  0
    2.8894   -0.2144    0.0000 C   0  0  0  0  0  0  0  0  0  0  0  0
    2.3531   -0.8413    0.0000 O   0  0  0  0  0  0  0  0  0  0  0  0
    1.5421   -0.6903    0.0000 C   0  0  0  0  0  0  0  0  0  0  0  0
    2.6147    0.5635    0.0000 C   0  0  0  0  0  0  0  0  0  0  0  0
    1.7902    0.5920    0.0000 C   0  0  0  0  0  0  0  0  0  0  0  0
    1.5790   -0.2055    0.0000 C   0  0  0  0  0  0  0  0  0  0  0  0
    0.8238   -0.5377    0.0000 C   0  0  0  0  0  0  0  0  0  0  0  0
    0.0933   -0.1543    0.0000 C   0  0  0  0  0  0  0  0  0  0  0  0
   -0.5691   -0.6461    0.0000 O   0  0  0  0  0  0  0  0  0  0  0  0
   -0.4743   -1.4656    0.0000 C   0  0  0  0  0  0  0  0  0  0  0  0
   -0.0625    0.6559    0.0000 C   0  0  0  0  0  0  0  0  0  0  0  0
   -0.8600    0.8671    0.0000 O   0  0  0  0  0  0  0  0  0  0  0  0
    0.4738    1.2828    0.0000 C   0  0  0  0  0  0  0  0  0  0  0  0
    1.2984    1.2543    0.0000 C   0  0  0  0  0  0  0  0  0  0  0  0
  1  2  1  0  0  0  0
  2  3  1  0  0  0  0
  3  4  1  0  0  0  0
  4  5  1  0  0  0  0
  5  6  1  0  0  0  0
  6  7  4  0  0  0  0
  7  8  4  0  0  0  0
  8  9  1  0  0  0  0
  9 10  1  0  0  0  0
  8 11  4  0  0  0  0
 11 12  1  0  0  0  0
 12 13  1  0  0  0  0
 11 14  4  0  0  0  0
 14 15  1  0  0  0  0
 15 16  1  0  0  0  0
 14 17  4  0  0  0  0
  6 17  4  0  0  0  0
 17 18  1  0  0  0  0
 18 19  4  0  0  0  0
 19 20  4  0  0  0  0
 20 21  4  0  0  0  0
 21 22  1  0  0  0  0
 22 23  1  0  0  0  0
 21 24  4  0  0  0  0
 24 25  2  0  0  0  0
 24 26  4  0  0  0  0
 26 27  4  0  0  0  0
  3 27  1  0  0  0  0
 18 27  4  0  0  0  0
M  END

> <ChembankId>
2003

> <SMILES>
CNC1CCc2cc(OC)c(OC)c(OC)c2-c3ccc(OC)c(=O)cc13

> <InChI>
1/C21H25NO5/c1-22-15-8-6-12-10-18(25-3)20(26-4)21(27-5)19(12)13-7-9-17(24-2)16(23)11-14(13)15/h7,9-11,15,22H,6,8H2,1-5H3/t15-/m1/s1

$$$$
3173242
  Marvin  11101114192D          

 11 12  0  0  0  0            999 V2000
   -0.1712   -0.6979    0.0000 N   0  0  0  0  0  0  0  0  0  0  0  0
    0.6538   -0.6979    0.0000 C   0  0  0  0  0  0  0  0  0  0  0  0
    1.1387   -0.0305    0.0000 N   0  0  0  0  0  0  0  0  0  0  0  0
    1.9233   -0.2854    0.0000 C   0  0  0  0  0  0  0  0  0  0  0  0
    2.6378    0.1271    0.0000 C   0  0  0  0  0  0  0  0  0  0  0  0
    3.3523   -0.2854    0.0000 C   0  0  0  0  0  0  0  0  0  0  0  0
    4.0668    0.1271    0.0000 Cl  0  0  0  0  0  0  0  0  0  0  0  0
    3.3523   -1.1104    0.0000 C   0  0  0  0  0  0  0  0  0  0  0  0
    2.6378   -1.5229    0.0000 C   0  0  0  0  0  0  0  0  0  0  0  0
    1.9233   -1.1104    0.0000 C   0  0  0  0  0  0  0  0  0  0  0  0
    1.1387   -1.3654    0.0000 O   0  0  0  0  0  0  0  0  0  0  0  0
  1  2  1  0  0  0  0
  2  3  4  0  0  0  0
  3  4  4  0  0  0  0
  4  5  4  0  0  0  0
  5  6  4  0  0  0  0
  6  7  1  0  0  0  0
  6  8  4  0  0  0  0
  8  9  4  0  0  0  0
  9 10  4  0  0  0  0
  4 10  4  0  0  0  0
 10 11  4  0  0  0  0
  2 11  4  0  0  0  0
M  END

> <ChembankId>
3173242

> <SMILES>
Nc1nc2cc(Cl)ccc2o1

> <InChI>
1/C7H5ClN2O/c8-4-1-2-6-5(3-4)10-7(9)11-6/h1-3H,(H2,9,10)

$$$$
980
  Marvin  11101114192D          

 32 35  0  0  1  0            999 V2000
    2.1434    2.0625    0.0000 C   0  0  0  0  0  0  0  0  0  0  0  0
    2.1434    1.2375    0.0000 C   0  0  2  0  0  0  0  0  0  0  0  0
    2.8579    0.8250    0.0000 C   0  0  1  0  0  0  0  0  0  0  0  0
    3.5724    1.2375    0.0000 C   0  0  2  0  0  0  0  0  0  0  0  0
    3.5724    2.0625    0.0000 O   0  0  0  0  0  0  0  0  0  0  0  0
    4.2868    0.8250    0.0000 C   0  0  0  0  0  0  0  0  0  0  0  0
    5.0013    1.2375    0.0000 C   0  0  2  0  0  0  0  0  0  0  0  0
    5.0013    2.0625    0.0000 N   0  0  0  0  0  0  0  0  0  0  0  0
    5.7158    2.4750    0.0000 C   0  0  0  0  0  0  0  0  0  0  0  0
    4.2868    2.4750    0.0000 C   0  0  0  0  0  0  0  0  0  0  0  0
    5.7158    0.8250    0.0000 C   0  0  0  0  0  0  0  0  0  0  0  0
    5.7158   -0.0000    0.0000 C   0  0  0  0  0  0  0  0  0  0  0  0
    6.4302   -0.4125    0.0000 C   0  0  0  0  0  0  0  0  0  0  0  0
    7.1447   -0.0000    0.0000 O   0  0  0  0  0  0  0  0  0  0  0  0
    6.4302   -1.2375    0.0000 N   0  0  0  0  0  0  0  0  0  0  0  0
    5.0013   -0.4125    0.0000 C   0  0  0  0  0  0  0  0  0  0  0  0
    5.0013   -1.2375    0.0000 O   0  0  0  0  0  0  0  0  0  0  0  0
    4.2868    0.0000    0.0000 C   0  0  2  0  0  0  0  0  0  0  0  0
    4.2868   -0.8250    0.0000 O   0  0  0  0  0  0  0  0  0  0  0  0
    3.5724   -0.4125    0.0000 C   0  0  0  0  0  0  0  0  0  0  0  0
    2.8579    0.0000    0.0000 C   0  0  0  0  0  0  0  0  0  0  0  0
    2.1434   -0.4125    0.0000 C   0  0  0  0  0  0  0  0  0  0  0  0
    2.1434   -1.2375    0.0000 O   0  0  0  0  0  0  0  0  0  0  0  0
    1.4289    0.0000    0.0000 C   0  0  0  0  0  0  0  0  0  0  0  0
    0.7145   -0.4125    0.0000 C   0  0  0  0  0  0  0  0  0  0  0  0
    0.7145   -1.2375    0.0000 O   0  0  0  0  0  0  0  0  0  0  0  0
    0.0000   -0.0000    0.0000 C   0  0  0  0  0  0  0  0  0  0  0  0
    0.0000    0.8250    0.0000 C   0  0  0  0  0  0  0  0  0  0  0  0
    0.7145    1.2375    0.0000 C   0  0  0  0  0  0  0  0  0  0  0  0
    1.4289    0.8250    0.0000 C   0  0  0  0  0  0  0  0  0  0  0  0
    3.5724   -1.2375    0.0000 O   0  0  0  0  0  0  0  0  0  0  0  0
    6.4302    1.2375    0.0000 O   0  0  0  0  0  0  0  0  0  0  0  0
  2  1  1  6  0  0  0
  2  3  1  0  0  0  0
  3  4  1  0  0  0  0
  4  5  1  6  0  0  0
  4  6  1  0  0  0  0
  6  7  1  0  0  0  0
  7  8  1  6  0  0  0
  8  9  1  0  0  0  0
  8 10  1  0  0  0  0
  7 11  1  0  0  0  0
 11 12  2  0  0  0  0
 12 13  1  0  0  0  0
 13 14  2  0  0  0  0
 13 15  1  0  0  0  0
 12 16  1  0  0  0  0
 16 17  2  0  0  0  0
 16 18  1  0  0  0  0
  6 18  1  0  0  0  0
 18 19  1  6  0  0  0
 18 20  1  0  0  0  0
 20 21  2  0  0  0  0
  3 21  1  1  0  0  0
 21 22  1  0  0  0  0
 22 23  2  0  0  0  0
 22 24  1  0  0  0  0
 24 25  4  0  0  0  0
 25 26  1  0  0  0  0
 25 27  4  0  0  0  0
 27 28  4  0  0  0  0
 28 29  4  0  0  0  0
 29 30  4  0  0  0  0
  2 30  1  0  0  0  0
 24 30  4  0  0  0  0
 20 31  1  0  0  0  0
 11 32  1  0  0  0  0
M  END

> <ChembankId>
980

> <SMILES>
C[C@@H]1[C@H]2[C@H](O)[C@H]3[C@H](N(C)C)C(=C(C(=O)N)C(=O)[C@@]3(O)C(=C2C(=O)c4c(O)cccc14)O)O

> <InChI>
1/C22H24N2O8/c1-7-8-5-4-6-9(25)11(8)16(26)12-10(7)17(27)14-15(24(2)3)18(28)13(21(23)31)20(30)22(14,32)19(12)29/h4-7,10,14-15,17,25,27-29,32H,1-3H3,(H2,23,31)

$$$$
1077
  Marvin  11101114192D          

 33 36  0  0  1  0            999 V2000
    2.1434   -1.2375    0.0000 C   0  0  0  0  0  0  0  0  0  0  0  0
    2.8579   -1.6500    0.0000 N   0  0  0  0  0  0  0  0  0  0  0  0
    3.5724   -1.2375    0.0000 C   0  0  0  0  0  0  0  0  0  0  0  0
    2.8579   -2.4750    0.0000 C   0  0  1  0  0  0  0  0  0  0  0  0
    3.5724   -2.8875    0.0000 C   0  0  2  0  0  0  0  0  0  0  0  0
    4.2868   -2.4750    0.0000 C   0  0  0  0  0  0  0  0  0  0  0  0
    5.0013   -2.8875    0.0000 C   0  0  2  0  0  0  0  0  0  0  0  0
    5.7158   -2.4750    0.0000 C   0  0  0  0  0  0  0  0  0  0  0  0
    6.4302   -2.8875    0.0000 C   0  0  0  0  0  0  0  0  0  0  0  0
    7.1447   -2.4750    0.0000 C   0  0  0  0  0  0  0  0  0  0  0  0
    7.8592   -2.8875    0.0000 C   0  0  0  0  0  0  0  0  0  0  0  0
    7.8592   -3.7125    0.0000 C   0  0  0  0  0  0  0  0  0  0  0  0
    7.1447   -4.1250    0.0000 C   0  0  0  0  0  0  0  0  0  0  0  0
    7.1447   -4.9500    0.0000 O   0  0  0  0  0  0  0  0  0  0  0  0
    6.4302   -3.7125    0.0000 C   0  0  0  0  0  0  0  0  0  0  0  0
    5.7158   -4.1250    0.0000 C   0  0  0  0  0  0  0  0  0  0  0  0
    5.7158   -4.9500    0.0000 O   0  0  0  0  0  0  0  0  0  0  0  0
    5.0013   -3.7125    0.0000 C   0  0  0  0  0  0  0  0  0  0  0  0
    4.2868   -4.1250    0.0000 C   0  0  0  0  0  0  0  0  0  0  0  0
    4.2868   -4.9500    0.0000 O   0  0  0  0  0  0  0  0  0  0  0  0
    3.5724   -3.7125    0.0000 C   0  0  1  0  0  0  0  0  0  0  0  0
    3.5724   -4.5375    0.0000 O   0  0  0  0  0  0  0  0  0  0  0  0
    2.8579   -4.1250    0.0000 C   0  0  0  0  0  0  0  0  0  0  0  0
    2.8579   -4.9500    0.0000 O   0  0  0  0  0  0  0  0  0  0  0  0
    2.1434   -3.7125    0.0000 C   0  0  0  0  0  0  0  0  0  0  0  0
    2.1434   -2.8875    0.0000 C   0  0  0  0  0  0  0  0  0  0  0  0
    1.4289   -2.4750    0.0000 O   0  0  0  0  0  0  0  0  0  0  0  0
    1.4289   -4.1250    0.0000 C   0  0  0  0  0  0  0  0  0  0  0  0
    0.7145   -3.7125    0.0000 O   0  0  0  0  0  0  0  0  0  0  0  0
    1.4289   -4.9500    0.0000 N   0  0  0  0  0  0  0  0  0  0  0  0
    7.1447   -1.6500    0.0000 N   0  0  0  0  0  0  0  0  0  0  0  0
    6.4302   -1.2375    0.0000 C   0  0  0  0  0  0  0  0  0  0  0  0
    7.8592   -1.2375    0.0000 C   0  0  0  0  0  0  0  0  0  0  0  0
  1  2  1  0  0  0  0
  2  3  1  0  0  0  0
  4  2  1  1  0  0  0
  4  5  1  0  0  0  0
  5  6  1  6  0  0  0
  7  6  1  6  0  0  0
  7  8  1  0  0  0  0
  8  9  1  0  0  0  0
  9 10  4  0  0  0  0
 10 11  4  0  0  0  0
 11 12  4  0  0  0  0
 12 13  4  0  0  0  0
 13 14  1  0  0  0  0
 13 15  4  0  0  0  0
  9 15  4  0  0  0  0
 15 16  1  0  0  0  0
 16 17  2  0  0  0  0
 16 18  1  0  0  0  0
  7 18  1  0  0  0  0
 18 19  2  0  0  0  0
 19 20  1  0  0  0  0
 19 21  1  0  0  0  0
  5 21  1  0  0  0  0
 21 22  1  1  0  0  0
 21 23  1  0  0  0  0
 23 24  2  0  0  0  0
 23 25  1  0  0  0  0
 25 26  2  0  0  0  0
  4 26  1  0  0  0  0
 26 27  1  0  0  0  0
 25 28  1  0  0  0  0
 28 29  2  0  0  0  0
 28 30  1  0  0  0  0
 10 31  1  0  0  0  0
 31 32  1  0  0  0  0
 31 33  1  0  0  0  0
M  END

> <ChembankId>
1077

> <SMILES>
CN(C)[C@H]1[C@@H]2C[C@@H]3Cc4c(ccc(O)c4C(=O)C3=C(O)[C@]2(O)C(=O)C(=C1O)C(=O)N)N(C)C

> <InChI>
1/C23H27N3O7/c1-25(2)12-5-6-13(27)15-10(12)7-9-8-11-17(26(3)4)19(29)16(22(24)32)21(31)23(11,33)20(30)14(9)18(15)28/h5-6,9,11,17,27,29-30,33H,7-8H2,1-4H3,(H2,24,32)

$$$$
94
  Marvin  11101114192D          

 21 21  0  0  0  0            999 V2000
   -3.2408    1.6500    0.0000 C   0  0  0  0  0  0  0  0  0  0  0  0
   -2.5263    2.0625    0.0000 C   0  0  0  0  0  0  0  0  0  0  0  0
   -1.8118    1.6500    0.0000 C   0  0  0  0  0  0  0  0  0  0  0  0
   -1.0974    2.0625    0.0000 C   0  0  0  0  0  0  0  0  0  0  0  0
   -0.3829    1.6500    0.0000 C   0  0  0  0  0  0  0  0  0  0  0  0
    0.3316    2.0625    0.0000 C   0  0  0  0  0  0  0  0  0  0  0  0
    0.7441    2.7770    0.0000 O   0  0  0  0  0  0  0  0  0  0  0  0
    1.1566    2.0625    0.0000 C   0  0  0  0  0  0  0  0  0  0  0  0
    1.8711    1.6500    0.0000 C   0  0  0  0  0  0  0  0  0  0  0  0
    1.8711    0.8250    0.0000 C   0  0  0  0  0  0  0  0  0  0  0  0
    2.5855    0.4125    0.0000 C   0  0  0  0  0  0  0  0  0  0  0  0
    3.3000    0.8250    0.0000 C   0  0  0  0  0  0  0  0  0  0  0  0
    4.0145    0.4125    0.0000 C   0  0  0  0  0  0  0  0  0  0  0  0
    4.7289    0.8250    0.0000 C   0  0  0  0  0  0  0  0  0  0  0  0
    5.4434    0.4125    0.0000 C   0  0  0  0  0  0  0  0  0  0  0  0
    6.1579    0.8250    0.0000 C   0  0  0  0  0  0  0  0  0  0  0  0
    6.8724    0.4125    0.0000 C   0  0  0  0  0  0  0  0  0  0  0  0
    7.5868    0.8250    0.0000 C   0  0  0  0  0  0  0  0  0  0  0  0
    8.3013    0.4125    0.0000 C   0  0  0  0  0  0  0  0  0  0  0  0
    9.0158    0.8250    0.0000 O   0  0  0  0  0  0  0  0  0  0  0  0
    8.3013   -0.4125    0.0000 O   0  0  0  0  0  0  0  0  0  0  0  0
  1  2  1  0  0  0  0
  2  3  1  0  0  0  0
  3  4  1  0  0  0  0
  4  5  1  0  0  0  0
  5  6  1  0  0  0  0
  6  7  1  0  0  0  0
  7  8  1  0  0  0  0
  6  8  1  0  0  0  0
  8  9  1  0  0  0  0
  9 10  1  0  0  0  0
 10 11  2  0  0  0  0
 11 12  1  0  0  0  0
 12 13  1  0  0  0  0
 13 14  1  0  0  0  0
 14 15  1  0  0  0  0
 15 16  1  0  0  0  0
 16 17  1  0  0  0  0
 17 18  1  0  0  0  0
 18 19  1  0  0  0  0
 19 20  2  0  0  0  0
 19 21  1  0  0  0  0
M  END

> <ChembankId>
94

> <SMILES>
CCCCCC1OC1C/C=C\CCCCCCCC(=O)O

> <InChI>
1/C18H32O3/c1-2-3-10-13-16-17(21-16)14-11-8-6-4-5-7-9-12-15-18(19)20/h8,11,16-17H,2-7,9-10,12-15H2,1H3,(H,19,20)

$$$$
566
  Marvin  11101114192D          

 27 29  0  0  0  0            999 V2000
   -2.6462   -3.5558    0.0000 C   0  0  0  0  0  0  0  0  0  0  0  0
   -3.0587   -2.8414    0.0000 O   0  0  0  0  0  0  0  0  0  0  0  0
   -2.6462   -2.1269    0.0000 C   0  0  0  0  0  0  0  0  0  0  0  0
   -3.0587   -1.4124    0.0000 C   0  0  0  0  0  0  0  0  0  0  0  0
   -2.6462   -0.6979    0.0000 C   0  0  0  0  0  0  0  0  0  0  0  0
   -3.0587    0.0165    0.0000 C   0  0  0  0  0  0  0  0  0  0  0  0
   -3.8837    0.0165    0.0000 C   0  0  0  0  0  0  0  0  0  0  0  0
   -4.2962   -0.6979    0.0000 C   0  0  0  0  0  0  0  0  0  0  0  0
   -4.7087   -1.4124    0.0000 N   0  0  0  0  0  0  0  0  0  0  0  0
   -4.2962    0.7310    0.0000 C   0  0  0  0  0  0  0  0  0  0  0  0
   -5.1212    0.7310    0.0000 O   0  0  0  0  0  0  0  0  0  0  0  0
   -3.8837    1.4455    0.0000 N   0  0  0  0  0  0  0  0  0  0  0  0
   -1.8212   -0.6979    0.0000 C   0  0  0  0  0  0  0  0  0  0  0  0
   -1.4087   -1.4124    0.0000 C   0  0  0  0  0  0  0  0  0  0  0  0
   -0.5837   -1.4124    0.0000 C   0  0  0  0  0  0  0  0  0  0  0  0
   -0.1712   -0.6979    0.0000 S   0  0  0  0  0  0  0  0  0  0  0  0
    0.6538   -0.6979    0.0000 C   0  0  0  0  0  0  0  0  0  0  0  0
    1.1387   -0.0305    0.0000 N   0  0  0  0  0  0  0  0  0  0  0  0
    1.9233   -0.2854    0.0000 C   0  0  0  0  0  0  0  0  0  0  0  0
    2.6378    0.1271    0.0000 C   0  0  0  0  0  0  0  0  0  0  0  0
    3.3523   -0.2854    0.0000 C   0  0  0  0  0  0  0  0  0  0  0  0
    3.3523   -1.1104    0.0000 C   0  0  0  0  0  0  0  0  0  0  0  0
    2.6378   -1.5229    0.0000 C   0  0  0  0  0  0  0  0  0  0  0  0
    1.9233   -1.1104    0.0000 C   0  0  0  0  0  0  0  0  0  0  0  0
    1.1387   -1.3654    0.0000 S   0  0  0  0  0  0  0  0  0  0  0  0
   -1.8212   -2.1269    0.0000 C   0  0  0  0  0  0  0  0  0  0  0  0
   -1.4087   -2.8414    0.0000 O   0  0  0  0  0  0  0  0  0  0  0  0
  1  2  1  0  0  0  0
  2  3  1  0  0  0  0
  3  4  4  0  0  0  0
  4  5  4  0  0  0  0
  5  6  1  0  0  0  0
  6  7  2  0  0  0  0
  7  8  1  0  0  0  0
  8  9  3  0  0  0  0
  7 10  1  0  0  0  0
 10 11  2  0  0  0  0
 10 12  1  0  0  0  0
  5 13  4  0  0  0  0
 13 14  4  0  0  0  0
 14 15  1  0  0  0  0
 15 16  1  0  0  0  0
 16 17  1  0  0  0  0
 17 18  4  0  0  0  0
 18 19  4  0  0  0  0
 19 20  4  0  0  0  0
 20 21  4  0  0  0  0
 21 22  4  0  0  0  0
 22 23  4  0  0  0  0
 23 24  4  0  0  0  0
 19 24  4  0  0  0  0
 24 25  4  0  0  0  0
 17 25  4  0  0  0  0
 14 26  4  0  0  0  0
  3 26  4  0  0  0  0
 26 27  1  0  0  0  0
M  END

> <ChembankId>
566

> <SMILES>
COc1cc(/C=C(\C#N)/C(=O)N)cc(CSc2nc3ccccc3s2)c1O

> <InChI>
1/C19H15N3O3S2/c1-25-15-8-11(6-12(9-20)18(21)24)7-13(17(15)23)10-26-19-22-14-4-2-3-5-16(14)27-19/h2-8,23H,10H2,1H3,(H2,21,24)

$$$$
1298
  Marvin  11101114192D          

 21 22  0  0  0  0            999 V2000
    3.5724    0.4125    0.0000 C   0  0  0  0  0  0  0  0  0  0  0  0
    2.8579   -0.0000    0.0000 S   0  0  0  0  0  0  0  0  0  0  0  0
    2.4454    0.7145    0.0000 O   0  0  0  0  0  0  0  0  0  0  0  0
    3.2704   -0.7145    0.0000 O   0  0  0  0  0  0  0  0  0  0  0  0
    2.1434   -0.4125    0.0000 N   0  0  0  0  0  0  0  0  0  0  0  0
    2.1434   -1.2375    0.0000 C   0  0  0  0  0  0  0  0  0  0  0  0
    2.8579   -1.6500    0.0000 C   0  0  0  0  0  0  0  0  0  0  0  0
    2.8579   -2.4750    0.0000 C   0  0  0  0  0  0  0  0  0  0  0  0
    2.1434   -2.8875    0.0000 C   0  0  0  0  0  0  0  0  0  0  0  0
    1.4289   -2.4750    0.0000 C   0  0  0  0  0  0  0  0  0  0  0  0
    1.4289   -1.6500    0.0000 C   0  0  0  0  0  0  0  0  0  0  0  0
    0.7145   -1.2375    0.0000 O   0  0  0  0  0  0  0  0  0  0  0  0
    0.7145   -0.4125    0.0000 C   0  0  0  0  0  0  0  0  0  0  0  0
    0.0000    0.0000    0.0000 C   0  0  0  0  0  0  0  0  0  0  0  0
    0.0000    0.8250    0.0000 C   0  0  0  0  0  0  0  0  0  0  0  0
    0.7145    1.2375    0.0000 C   0  0  0  0  0  0  0  0  0  0  0  0
    1.4289    0.8250    0.0000 C   0  0  0  0  0  0  0  0  0  0  0  0
    1.4289    0.0000    0.0000 C   0  0  0  0  0  0  0  0  0  0  0  0
    2.1434   -3.7125    0.0000 N   0  3  0  0  0  0  0  0  0  0  0  0
    1.4289   -4.1250    0.0000 O   0  0  0  0  0  0  0  0  0  0  0  0
    2.8579   -4.1250    0.0000 O   0  5  0  0  0  0  0  0  0  0  0  0
  1  2  1  0  0  0  0
  2  3  2  0  0  0  0
  2  4  2  0  0  0  0
  2  5  1  0  0  0  0
  5  6  1  0  0  0  0
  6  7  4  0  0  0  0
  7  8  4  0  0  0  0
  8  9  4  0  0  0  0
  9 10  4  0  0  0  0
 10 11  4  0  0  0  0
  6 11  4  0  0  0  0
 11 12  1  0  0  0  0
 12 13  1  0  0  0  0
 13 14  4  0  0  0  0
 14 15  4  0  0  0  0
 15 16  4  0  0  0  0
 16 17  4  0  0  0  0
 17 18  4  0  0  0  0
 13 18  4  0  0  0  0
  9 19  1  0  0  0  0
 19 20  2  0  0  0  0
 19 21  1  0  0  0  0
M  CHG  2  19   1  21  -1
M  END

> <ChembankId>
1298

> <SMILES>
CS(=O)(=O)Nc1ccc(cc1Oc2ccccc2)[N+](=O)[O-]

> <InChI>
1/C13H12N2O5S/c1-21(18,19)14-12-8-7-10(15(16)17)9-13(12)20-11-5-3-2-4-6-11/h2-9,14H,1H3

$$$$
331
  Marvin  11101114192D          

 22 24  0  0  0  0            999 V2000
   -0.7145   -0.4125    0.0000 C   0  0  0  0  0  0  0  0  0  0  0  0
    0.0000    0.0000    0.0000 O   0  0  0  0  0  0  0  0  0  0  0  0
    0.7145   -0.4125    0.0000 C   0  0  0  0  0  0  0  0  0  0  0  0
    1.4289    0.0000    0.0000 C   0  0  0  0  0  0  0  0  0  0  0  0
    2.1434   -0.4125    0.0000 C   0  0  0  0  0  0  0  0  0  0  0  0
    2.8579    0.0000    0.0000 N   0  0  0  0  0  0  0  0  0  0  0  0
    3.5724   -0.4125    0.0000 C   0  0  0  0  0  0  0  0  0  0  0  0
    3.5724   -1.2375    0.0000 N   0  0  0  0  0  0  0  0  0  0  0  0
    2.8579   -1.6500    0.0000 C   0  0  0  0  0  0  0  0  0  0  0  0
    2.8579   -2.4750    0.0000 N   0  0  0  0  0  0  0  0  0  0  0  0
    2.1434   -2.8875    0.0000 C   0  0  0  0  0  0  0  0  0  0  0  0
    2.1434   -3.7125    0.0000 C   0  0  0  0  0  0  0  0  0  0  0  0
    1.4289   -4.1250    0.0000 C   0  0  0  0  0  0  0  0  0  0  0  0
    0.7145   -3.7125    0.0000 C   0  0  0  0  0  0  0  0  0  0  0  0
    0.7145   -2.8875    0.0000 C   0  0  0  0  0  0  0  0  0  0  0  0
    0.0000   -2.4750    0.0000 Cl  0  0  0  0  0  0  0  0  0  0  0  0
    1.4289   -2.4750    0.0000 C   0  0  0  0  0  0  0  0  0  0  0  0
    2.1434   -1.2375    0.0000 C   0  0  0  0  0  0  0  0  0  0  0  0
    1.4289   -1.6500    0.0000 C   0  0  0  0  0  0  0  0  0  0  0  0
    0.7145   -1.2375    0.0000 C   0  0  0  0  0  0  0  0  0  0  0  0
    0.0000   -1.6500    0.0000 O   0  0  0  0  0  0  0  0  0  0  0  0
   -0.7145   -1.2375    0.0000 C   0  0  0  0  0  0  0  0  0  0  0  0
  1  2  1  0  0  0  0
  2  3  1  0  0  0  0
  3  4  4  0  0  0  0
  4  5  4  0  0  0  0
  5  6  4  0  0  0  0
  6  7  4  0  0  0  0
  7  8  4  0  0  0  0
  8  9  4  0  0  0  0
  9 10  1  0  0  0  0
 10 11  1  0  0  0  0
 11 12  4  0  0  0  0
 12 13  4  0  0  0  0
 13 14  4  0  0  0  0
 14 15  4  0  0  0  0
 15 16  1  0  0  0  0
 15 17  4  0  0  0  0
 11 17  4  0  0  0  0
  9 18  4  0  0  0  0
  5 18  4  0  0  0  0
 18 19  4  0  0  0  0
 19 20  4  0  0  0  0
  3 20  4  0  0  0  0
 20 21  1  0  0  0  0
 21 22  1  0  0  0  0
M  END

> <ChembankId>
331

> <SMILES>
COc1cc2ncnc(Nc3cccc(Cl)c3)c2cc1OC

> <InChI>
1/C16H14ClN3O2/c1-21-14-7-12-13(8-15(14)22-2)18-9-19-16(12)20-11-5-3-4-10(17)6-11/h3-9H,1-2H3,(H,18,19,20)

$$$$
1055159
  Marvin  11101114192D          

 16 16  0  0  0  0            999 V2000
   -0.7145    1.2375    0.0000 N   0  0  0  0  0  0  0  0  0  0  0  0
   -0.7145    0.4125    0.0000 C   0  0  0  0  0  0  0  0  0  0  0  0
   -1.4289   -0.0000    0.0000 C   0  0  0  0  0  0  0  0  0  0  0  0
   -2.1434    0.4125    0.0000 C   0  0  0  0  0  0  0  0  0  0  0  0
   -2.1434    1.2375    0.0000 O   0  0  0  0  0  0  0  0  0  0  0  0
   -2.8579   -0.0000    0.0000 C   0  0  0  0  0  0  0  0  0  0  0  0
   -2.8579   -0.8250    0.0000 C   0  0  0  0  0  0  0  0  0  0  0  0
   -3.5724   -1.2375    0.0000 C   0  0  0  0  0  0  0  0  0  0  0  0
   -4.2868   -0.8250    0.0000 C   0  0  0  0  0  0  0  0  0  0  0  0
   -4.2868    0.0000    0.0000 C   0  0  0  0  0  0  0  0  0  0  0  0
   -5.0013    0.4125    0.0000 O   0  0  0  0  0  0  0  0  0  0  0  0
   -3.5724    0.4125    0.0000 C   0  0  0  0  0  0  0  0  0  0  0  0
   -3.5724    1.2375    0.0000 N   0  0  0  0  0  0  0  0  0  0  0  0
    0.0000   -0.0000    0.0000 C   0  0  0  0  0  0  0  0  0  0  0  0
    0.7145    0.4125    0.0000 O   0  0  0  0  0  0  0  0  0  0  0  0
   -0.0000   -0.8250    0.0000 O   0  0  0  0  0  0  0  0  0  0  0  0
  1  2  1  0  0  0  0
  2  3  1  0  0  0  0
  3  4  1  0  0  0  0
  4  5  2  0  0  0  0
  4  6  1  0  0  0  0
  6  7  4  0  0  0  0
  7  8  4  0  0  0  0
  8  9  4  0  0  0  0
  9 10  4  0  0  0  0
 10 11  1  0  0  0  0
 10 12  4  0  0  0  0
  6 12  4  0  0  0  0
 12 13  1  0  0  0  0
  2 14  1  0  0  0  0
 14 15  2  0  0  0  0
 14 16  1  0  0  0  0
M  END

> <ChembankId>
1055159

> <SMILES>
NC(CC(=O)c1cccc(O)c1N)C(=O)O

> <InChI>
1/C10H12N2O4/c11-6(10(15)16)4-8(14)5-2-1-3-7(13)9(5)12/h1-3,6,13H,4,11-12H2,(H,15,16)

$$$$
384
  Marvin  11101114192D          

 15 17  0  0  0  0            999 V2000
    1.1270    2.5559    0.0000 O   0  0  0  0  0  0  0  0  0  0  0  0
    1.5395    1.8414    0.0000 C   0  0  0  0  0  0  0  0  0  0  0  0
    2.3645    1.8414    0.0000 N   0  0  0  0  0  0  0  0  0  0  0  0
    2.7770    1.1270    0.0000 C   0  0  0  0  0  0  0  0  0  0  0  0
    3.6020    1.1270    0.0000 C   0  0  0  0  0  0  0  0  0  0  0  0
    4.0145    0.4125    0.0000 C   0  0  0  0  0  0  0  0  0  0  0  0
    3.6020   -0.3020    0.0000 C   0  0  0  0  0  0  0  0  0  0  0  0
    2.7770   -0.3020    0.0000 C   0  0  0  0  0  0  0  0  0  0  0  0
    2.3645    0.4125    0.0000 C   0  0  0  0  0  0  0  0  0  0  0  0
    1.5395    0.4125    0.0000 C   0  0  0  0  0  0  0  0  0  0  0  0
    1.1270   -0.3020    0.0000 C   0  0  0  0  0  0  0  0  0  0  0  0
    0.3020   -0.3020    0.0000 C   0  0  0  0  0  0  0  0  0  0  0  0
   -0.1105    0.4125    0.0000 C   0  0  0  0  0  0  0  0  0  0  0  0
    0.3020    1.1270    0.0000 C   0  0  0  0  0  0  0  0  0  0  0  0
    1.1270    1.1270    0.0000 C   0  0  0  0  0  0  0  0  0  0  0  0
  1  2  2  0  0  0  0
  2  3  4  0  0  0  0
  3  4  4  0  0  0  0
  4  5  4  0  0  0  0
  5  6  4  0  0  0  0
  6  7  4  0  0  0  0
  7  8  4  0  0  0  0
  8  9  4  0  0  0  0
  4  9  4  0  0  0  0
  9 10  4  0  0  0  0
 10 11  4  0  0  0  0
 11 12  4  0  0  0  0
 12 13  4  0  0  0  0
 13 14  4  0  0  0  0
 14 15  4  0  0  0  0
  2 15  4  0  0  0  0
 10 15  4  0  0  0  0
M  STY  1   1 DAT
M  SAL   1  1   3
M  SDT   1 MRV_IMPLICIT_H                                        
M  SDD   1     0.0000    0.0000    DR    ALL  0       0  
M  SED   1 IMPL_H1
M  END

> <ChembankId>
384

> <SMILES>
O=c1[nH]c2ccccc2c3ccccc13

> <InChI>
1/C13H9NO/c15-13-11-7-2-1-5-9(11)10-6-3-4-8-12(10)14-13/h1-8H,(H,14,15)

$$$$
41
  Marvin  11101114192D          

 20 21  0  0  0  0            999 V2000
    0.0000   -0.0000    0.0000 O   0  0  0  0  0  0  0  0  0  0  0  0
   -0.7145   -0.4125    0.0000 C   0  0  0  0  0  0  0  0  0  0  0  0
   -1.4289    0.0000    0.0000 O   0  0  0  0  0  0  0  0  0  0  0  0
   -0.7145   -1.2375    0.0000 C   0  0  0  0  0  0  0  0  0  0  0  0
    0.0000   -1.6500    0.0000 C   0  0  0  0  0  0  0  0  0  0  0  0
    0.0000   -2.4750    0.0000 C   0  0  0  0  0  0  0  0  0  0  0  0
   -0.7145   -2.8875    0.0000 C   0  0  0  0  0  0  0  0  0  0  0  0
   -1.4289   -2.4750    0.0000 C   0  0  0  0  0  0  0  0  0  0  0  0
   -1.4289   -1.6500    0.0000 C   0  0  0  0  0  0  0  0  0  0  0  0
   -2.1434   -1.2375    0.0000 N   0  0  0  0  0  0  0  0  0  0  0  0
   -2.8579   -1.6500    0.0000 C   0  0  0  0  0  0  0  0  0  0  0  0
   -2.8579   -2.4750    0.0000 C   0  0  0  0  0  0  0  0  0  0  0  0
   -3.5724   -2.8875    0.0000 C   0  0  0  0  0  0  0  0  0  0  0  0
   -4.2868   -2.4750    0.0000 C   0  0  0  0  0  0  0  0  0  0  0  0
   -4.2868   -1.6500    0.0000 C   0  0  0  0  0  0  0  0  0  0  0  0
   -3.5724   -1.2375    0.0000 C   0  0  0  0  0  0  0  0  0  0  0  0
   -5.0013   -1.2375    0.0000 C   0  0  0  0  0  0  0  0  0  0  0  0
   -5.7158   -0.8250    0.0000 F   0  0  0  0  0  0  0  0  0  0  0  0
   -4.5888   -0.5230    0.0000 F   0  0  0  0  0  0  0  0  0  0  0  0
   -5.4138   -1.9520    0.0000 F   0  0  0  0  0  0  0  0  0  0  0  0
  1  2  1  0  0  0  0
  2  3  2  0  0  0  0
  2  4  1  0  0  0  0
  4  5  4  0  0  0  0
  5  6  4  0  0  0  0
  6  7  4  0  0  0  0
  7  8  4  0  0  0  0
  8  9  4  0  0  0  0
  4  9  4  0  0  0  0
  9 10  1  0  0  0  0
 10 11  1  0  0  0  0
 11 12  4  0  0  0  0
 12 13  4  0  0  0  0
 13 14  4  0  0  0  0
 14 15  4  0  0  0  0
 15 16  4  0  0  0  0
 11 16  4  0  0  0  0
 15 17  1  0  0  0  0
 17 18  1  0  0  0  0
 17 19  1  0  0  0  0
 17 20  1  0  0  0  0
M  END

> <ChembankId>
41

> <SMILES>
OC(=O)c1ccccc1Nc2cccc(c2)C(F)(F)F

> <InChI>
1/C14H10F3NO2/c15-14(16,17)9-4-3-5-10(8-9)18-12-7-2-1-6-11(12)13(19)20/h1-8,18H,(H,19,20)

$$$$
110
  Marvin  11101114192D          

 25 26  0  0  0  0            999 V2000
    2.6077    0.1914    0.0000 C   0  0  0  0  0  0  0  0  0  0  0  0
    2.2069   -0.5297    0.0000 O   0  0  0  0  0  0  0  0  0  0  0  0
    1.2888   -0.5447    0.0000 C   0  0  0  0  0  0  0  0  0  0  0  0
    1.4641    0.2681    0.0000 O   0  0  0  0  0  0  0  0  0  0  0  0
    0.7145   -1.2375    0.0000 C   0  0  0  0  0  0  0  0  0  0  0  0
    1.4289   -1.6500    0.0000 C   0  0  0  0  0  0  0  0  0  0  0  0
    2.1179   -2.1039    0.0000 C   0  0  0  0  0  0  0  0  0  0  0  0
    1.4289   -2.4750    0.0000 N   0  0  0  0  0  0  0  0  0  0  0  0
    0.7145   -2.8875    0.0000 C   0  0  0  0  0  0  0  0  0  0  0  0
    0.0000   -2.4750    0.0000 C   0  0  0  0  0  0  0  0  0  0  0  0
    0.0000   -1.6500    0.0000 C   0  0  0  0  0  0  0  0  0  0  0  0
   -0.7145   -1.2375    0.0000 C   0  0  0  0  0  0  0  0  0  0  0  0
   -1.4289   -1.6500    0.0000 C   0  0  0  0  0  0  0  0  0  0  0  0
   -2.1434   -1.2375    0.0000 C   0  0  0  0  0  0  0  0  0  0  0  0
   -2.1434   -0.4125    0.0000 C   0  0  0  0  0  0  0  0  0  0  0  0
   -1.4289   -0.0000    0.0000 C   0  0  0  0  0  0  0  0  0  0  0  0
   -0.7145   -0.4125    0.0000 C   0  0  0  0  0  0  0  0  0  0  0  0
   -0.4041    0.3894    0.0000 N   0  3  0  0  0  0  0  0  0  0  0  0
    0.0215    1.1541    0.0000 O   0  0  0  0  0  0  0  0  0  0  0  0
   -0.3256    1.2845    0.0000 O   0  5  0  0  0  0  0  0  0  0  0  0
   -0.6149   -3.1166    0.0000 C   0  0  0  0  0  0  0  0  0  0  0  0
   -1.4102   -3.4419    0.0000 O   0  0  0  0  0  0  0  0  0  0  0  0
   -1.1491   -3.7878    0.0000 O   0  0  0  0  0  0  0  0  0  0  0  0
   -0.8469   -4.5554    0.0000 C   0  0  0  0  0  0  0  0  0  0  0  0
    1.0012   -3.7166    0.0000 C   0  0  0  0  0  0  0  0  0  0  0  0
  1  2  1  0  0  0  0
  2  3  1  0  0  0  0
  3  4  2  0  0  0  0
  3  5  1  0  0  0  0
  5  6  2  0  0  0  0
  6  7  1  0  0  0  0
  6  8  1  0  0  0  0
  8  9  1  0  0  0  0
  9 10  2  0  0  0  0
 10 11  1  0  0  0  0
  5 11  1  0  0  0  0
 11 12  1  0  0  0  0
 12 13  4  0  0  0  0
 13 14  4  0  0  0  0
 14 15  4  0  0  0  0
 15 16  4  0  0  0  0
 16 17  4  0  0  0  0
 12 17  4  0  0  0  0
 17 18  1  0  0  0  0
 18 19  2  0  0  0  0
 18 20  1  0  0  0  0
 10 21  1  0  0  0  0
 21 22  2  0  0  0  0
 21 23  1  0  0  0  0
 23 24  1  0  0  0  0
  9 25  1  0  0  0  0
M  CHG  2  18   1  20  -1
M  END

> <ChembankId>
110

> <SMILES>
COC(=O)C1=C(C)NC(=C(C1c2ccccc2[N+](=O)[O-])C(=O)OC)C

> <InChI>
1/C17H18N2O6/c1-9-13(16(20)24-3)15(14(10(2)18-9)17(21)25-4)11-7-5-6-8-12(11)19(22)23/h5-8,15,18H,1-4H3

$$$$
3104621
  Marvin  11101114192D          

 56 58  0  0  1  0            999 V2000
    4.9721    2.2897    0.0000 C   0  0  0  0  0  0  0  0  0  0  0  0
    5.5546    1.7056    0.0000 C   0  0  0  0  0  0  0  0  0  0  0  0
    5.3400    0.9090    0.0000 C   0  0  1  0  0  0  0  0  0  0  0  0
    5.9225    0.3248    0.0000 C   0  0  0  0  0  0  0  0  0  0  0  0
    6.7197    0.5372    0.0000 C   0  0  0  0  0  0  0  0  0  0  0  0
    7.3023   -0.0469    0.0000 C   0  0  1  0  0  0  0  0  0  0  0  0
    8.0995    0.1655    0.0000 O   0  0  0  0  0  0  0  0  0  0  0  0
    8.6820   -0.4187    0.0000 C   0  0  2  0  0  0  0  0  0  0  0  0
    8.8967    0.3779    0.0000 C   0  0  0  0  0  0  0  0  0  0  0  0
    9.6938    0.5903    0.0000 C   0  0  0  0  0  0  0  0  0  0  0  0
   10.2764    0.0062    0.0000 C   0  0  1  0  0  0  0  0  0  0  0  0
   11.0736    0.2186    0.0000 C   0  0  0  0  0  0  0  0  0  0  0  0
   10.0618   -0.7904    0.0000 C   0  0  1  0  0  0  0  0  0  0  0  0
   10.6443   -1.3746    0.0000 C   0  0  0  0  0  0  0  0  0  0  0  0
   11.4415   -1.1622    0.0000 C   0  0  2  0  0  0  0  0  0  0  0  0
   12.0241   -1.7463    0.0000 C   0  0  0  0  0  0  0  0  0  0  0  0
   11.6561   -0.3656    0.0000 O   0  0  0  0  0  0  0  0  0  0  0  0
    9.2646   -1.0028    0.0000 O   0  0  0  0  0  0  0  0  0  0  0  0
    8.4674   -1.2153    0.0000 C   0  0  2  0  0  0  0  0  0  0  0  0
    9.0500   -1.7994    0.0000 C   0  0  0  0  0  0  0  0  0  0  0  0
    7.6702   -1.4277    0.0000 C   0  0  1  0  0  0  0  0  0  0  0  0
    7.4556   -2.2243    0.0000 O   0  0  0  0  0  0  0  0  0  0  0  0
    6.6584   -2.4367    0.0000 C   0  0  0  0  0  0  0  0  0  0  0  0
    6.4438   -3.2333    0.0000 O   0  0  0  0  0  0  0  0  0  0  0  0
    6.0759   -1.8525    0.0000 C   0  0  0  0  0  0  0  0  0  0  0  0
    5.2787   -2.0650    0.0000 C   0  0  0  0  0  0  0  0  0  0  0  0
    4.6961   -1.4808    0.0000 C   0  0  1  0  0  0  0  0  0  0  0  0
    4.9107   -0.6842    0.0000 C   0  0  0  0  0  0  0  0  0  0  0  0
    3.8989   -1.6932    0.0000 C   0  0  2  0  0  0  0  0  0  0  0  0
    3.6843   -2.4898    0.0000 O   0  0  0  0  0  0  0  0  0  0  0  0
    3.3164   -1.1091    0.0000 C   0  0  1  0  0  0  0  0  0  0  0  0
    3.5310   -0.3125    0.0000 C   0  0  0  0  0  0  0  0  0  0  0  0
    2.5192   -1.3215    0.0000 C   0  0  0  0  0  0  0  0  0  0  0  0
    2.3046   -2.1181    0.0000 O   0  0  0  0  0  0  0  0  0  0  0  0
    1.9366   -0.7373    0.0000 C   0  0  1  0  0  0  0  0  0  0  0  0
    2.1513    0.0593    0.0000 C   0  0  0  0  0  0  0  0  0  0  0  0
    1.1394   -0.9497    0.0000 C   0  0  2  0  0  0  0  0  0  0  0  0
    0.9248   -1.7463    0.0000 O   0  0  0  0  0  0  0  0  0  0  0  0
    0.5569   -0.3656    0.0000 C   0  0  1  0  0  0  0  0  0  0  0  0
   -0.2403   -0.5780    0.0000 C   0  0  0  0  0  0  0  0  0  0  0  0
    0.7715    0.4310    0.0000 C   0  0  0  0  0  0  0  0  0  0  0  0
    1.5687    0.6434    0.0000 O   0  0  0  0  0  0  0  0  0  0  0  0
    0.1890    1.0152    0.0000 C   0  0  1  0  0  0  0  0  0  0  0  0
   -0.2852    0.3400    0.0000 C   0  0  0  0  0  0  0  0  0  0  0  0
   -0.5583    1.3649    0.0000 O   0  0  0  0  0  0  0  0  0  0  0  0
    0.4036    1.8118    0.0000 C   0  0  2  0  0  0  0  0  0  0  0  0
   -0.1790    2.3960    0.0000 O   0  0  0  0  0  0  0  0  0  0  0  0
    1.2008    2.0242    0.0000 C   0  0  1  0  0  0  0  0  0  0  0  0
    1.4154    2.8208    0.0000 C   0  0  0  0  0  0  0  0  0  0  0  0
    1.7833    1.4400    0.0000 C   0  0  0  0  0  0  0  0  0  0  0  0
    2.5805    1.6525    0.0000 C   0  0  0  0  0  0  0  0  0  0  0  0
    3.1631    1.0683    0.0000 C   0  0  0  0  0  0  0  0  0  0  0  0
    3.9603    1.2807    0.0000 C   0  0  0  0  0  0  0  0  0  0  0  0
    4.5428    0.6966    0.0000 C   0  0  0  0  0  0  0  0  0  0  0  0
    7.0877   -0.8435    0.0000 C   0  0  1  0  0  0  0  0  0  0  0  0
    6.2905   -1.0559    0.0000 C   0  0  0  0  0  0  0  0  0  0  0  0
  1  2  1  0  0  0  0
  3  2  1  1  0  0  0
  3  4  1  0  0  0  0
  4  5  1  0  0  0  0
  5  6  1  0  0  0  0
  6  7  1  1  0  0  0
  8  7  1  6  0  0  0
  8  9  1  0  0  0  0
  9 10  1  0  0  0  0
 10 11  1  0  0  0  0
 11 12  1  1  0  0  0
 11 13  1  0  0  0  0
 13 14  1  1  0  0  0
 14 15  1  0  0  0  0
 15 16  1  0  0  0  0
 15 17  1  1  0  0  0
 13 18  1  0  0  0  0
  8 18  1  0  0  0  0
  8 19  1  0  0  0  0
 19 20  1  6  0  0  0
 19 21  1  0  0  0  0
 21 22  1  1  0  0  0
 22 23  1  0  0  0  0
 23 24  2  0  0  0  0
 23 25  1  0  0  0  0
 25 26  2  0  0  0  0
 26 27  1  0  0  0  0
 27 28  1  6  0  0  0
 27 29  1  0  0  0  0
 29 30  1  6  0  0  0
 29 31  1  0  0  0  0
 31 32  1  6  0  0  0
 31 33  1  0  0  0  0
 33 34  2  0  0  0  0
 33 35  1  0  0  0  0
 35 36  1  6  0  0  0
 35 37  1  0  0  0  0
 37 38  1  6  0  0  0
 37 39  1  0  0  0  0
 39 40  1  1  0  0  0
 39 41  1  0  0  0  0
 41 42  2  0  0  0  0
 41 43  1  0  0  0  0
 43 44  1  6  0  0  0
 43 45  1  1  0  0  0
 43 46  1  0  0  0  0
 46 47  1  6  0  0  0
 46 48  1  0  0  0  0
 48 49  1  1  0  0  0
 48 50  1  0  0  0  0
 50 51  1  0  0  0  0
 51 52  2  0  0  0  0
 52 53  1  0  0  0  0
 53 54  2  0  0  0  0
  3 54  1  0  0  0  0
 21 55  1  0  0  0  0
  6 55  1  0  0  0  0
 55 56  1  1  0  0  0
M  END

> <ChembankId>
3104621

> <SMILES>
CC[C@H]/1CC[C@H]2O[C@@]3(CC[C@@H](C)[C@@H](C[C@H](C)O)O3)[C@H](C)[C@@H](OC(=O)/C=C/[C@@H](C)[C@H](O)[C@@H](C)C(=O)[C@@H](C)[C@H](O)[C@@H](C)C(=O)[C@@](C)(O)[C@H](O)[C@@H](C)C\C=C\C=C1)[C@H]2C

> <InChI>
1/C45H74O11/c1-12-34-17-15-13-14-16-27(4)42(51)44(11,53)43(52)32(9)40(50)31(8)39(49)30(7)38(48)26(3)18-21-37(47)54-41-29(6)35(20-19-34)55-45(33(41)10)23-22-25(2)36(56-45)24-28(5)46/h13-15,17-18,21,25-36,38,40-42,46,48,50-51,53H,12,16,19-20,22-24H2,1-11H3

$$$$
196
  Marvin  11101114192D          

 21 22  0  0  0  0            999 V2000
   -2.6897   -4.7467    0.0000 C   0  0  0  0  0  0  0  0  0  0  0  0
   -1.9753   -4.3342    0.0000 C   0  0  0  0  0  0  0  0  0  0  0  0
   -1.9753   -3.5092    0.0000 C   0  0  0  0  0  0  0  0  0  0  0  0
   -1.2608   -3.0967    0.0000 C   0  0  0  0  0  0  0  0  0  0  0  0
   -0.5463   -3.5092    0.0000 C   0  0  0  0  0  0  0  0  0  0  0  0
   -0.5463   -4.3342    0.0000 C   0  0  0  0  0  0  0  0  0  0  0  0
   -1.2608   -4.7467    0.0000 C   0  0  0  0  0  0  0  0  0  0  0  0
    0.1681   -3.0967    0.0000 S   0  0  0  0  0  0  0  0  0  0  0  0
    0.5806   -3.8111    0.0000 O   0  0  0  0  0  0  0  0  0  0  0  0
   -0.2444   -2.3822    0.0000 O   0  0  0  0  0  0  0  0  0  0  0  0
    0.8826   -2.6842    0.0000 N   0  0  0  0  0  0  0  0  0  0  0  0
    1.5971   -3.0967    0.0000 C   0  0  0  0  0  0  0  0  0  0  0  0
    1.5971   -3.9217    0.0000 O   0  0  0  0  0  0  0  0  0  0  0  0
    2.3116   -2.6842    0.0000 N   0  0  0  0  0  0  0  0  0  0  0  0
    3.0260   -3.0967    0.0000 N   0  0  0  0  0  0  0  0  0  0  0  0
    3.7077   -2.6319    0.0000 C   0  0  0  0  0  0  0  0  0  0  0  0
    4.4960   -2.8751    0.0000 C   0  0  0  0  0  0  0  0  0  0  0  0
    4.7974   -3.6431    0.0000 C   0  0  0  0  0  0  0  0  0  0  0  0
    4.3849   -4.3575    0.0000 C   0  0  0  0  0  0  0  0  0  0  0  0
    3.5691   -4.4805    0.0000 C   0  0  0  0  0  0  0  0  0  0  0  0
    2.9644   -3.9193    0.0000 C   0  0  0  0  0  0  0  0  0  0  0  0
  1  2  1  0  0  0  0
  2  3  4  0  0  0  0
  3  4  4  0  0  0  0
  4  5  4  0  0  0  0
  5  6  4  0  0  0  0
  6  7  4  0  0  0  0
  2  7  4  0  0  0  0
  5  8  1  0  0  0  0
  8  9  2  0  0  0  0
  8 10  2  0  0  0  0
  8 11  1  0  0  0  0
 11 12  1  0  0  0  0
 12 13  2  0  0  0  0
 12 14  1  0  0  0  0
 14 15  1  0  0  0  0
 15 16  1  0  0  0  0
 16 17  1  0  0  0  0
 17 18  1  0  0  0  0
 18 19  1  0  0  0  0
 19 20  1  0  0  0  0
 20 21  1  0  0  0  0
 15 21  1  0  0  0  0
M  END

> <ChembankId>
196

> <SMILES>
Cc1ccc(cc1)S(=O)(=O)NC(=O)NN2CCCCCC2

> <InChI>
1/C14H21N3O3S/c1-12-6-8-13(9-7-12)21(19,20)16-14(18)15-17-10-4-2-3-5-11-17/h6-9H,2-5,10-11H2,1H3,(H2,15,16,18)

$$$$
924
  Marvin  11101114192D          

 13 13  0  0  0  0            999 V2000
   -2.8579   -1.6500    0.0000 N   0  0  0  0  0  0  0  0  0  0  0  0
   -2.1434   -2.0625    0.0000 C   0  0  0  0  0  0  0  0  0  0  0  0
   -2.1434   -2.8875    0.0000 N   0  0  0  0  0  0  0  0  0  0  0  0
   -1.4289   -1.6500    0.0000 N   0  0  0  0  0  0  0  0  0  0  0  0
   -0.7145   -2.0625    0.0000 C   0  0  0  0  0  0  0  0  0  0  0  0
   -0.7145   -2.8875    0.0000 N   0  0  0  0  0  0  0  0  0  0  0  0
    0.0000   -1.6500    0.0000 N   0  0  0  0  0  0  0  0  0  0  0  0
    0.7145   -2.0625    0.0000 C   0  0  0  0  0  0  0  0  0  0  0  0
    1.4289   -1.6500    0.0000 C   0  0  0  0  0  0  0  0  0  0  0  0
    2.1434   -2.0625    0.0000 C   0  0  0  0  0  0  0  0  0  0  0  0
    2.1434   -2.8875    0.0000 C   0  0  0  0  0  0  0  0  0  0  0  0
    1.4289   -3.3000    0.0000 C   0  0  0  0  0  0  0  0  0  0  0  0
    0.7145   -2.8875    0.0000 C   0  0  0  0  0  0  0  0  0  0  0  0
  1  2  1  0  0  0  0
  2  3  2  0  0  0  0
  2  4  1  0  0  0  0
  4  5  1  0  0  0  0
  5  6  2  0  0  0  0
  5  7  1  0  0  0  0
  7  8  1  0  0  0  0
  8  9  4  0  0  0  0
  9 10  4  0  0  0  0
 10 11  4  0  0  0  0
 11 12  4  0  0  0  0
 12 13  4  0  0  0  0
  8 13  4  0  0  0  0
M  END

> <ChembankId>
924

> <SMILES>
NC(=N)NC(=N)Nc1ccccc1

> <InChI>
1/C8H11N5/c9-7(10)13-8(11)12-6-4-2-1-3-5-6/h1-5H,(H6,9,10,11,12,13)

$$$$
856
  Marvin  11101114192D          

 13 14  0  0  0  0            999 V2000
    4.0668    2.3479    0.0000 C   0  0  0  0  0  0  0  0  0  0  0  0
    3.3523    1.9354    0.0000 N   0  0  0  0  0  0  0  0  0  0  0  0
    3.3523    1.1104    0.0000 C   0  0  0  0  0  0  0  0  0  0  0  0
    4.0668    0.6979    0.0000 O   0  0  0  0  0  0  0  0  0  0  0  0
    2.6378    0.6979    0.0000 N   0  0  0  0  0  0  0  0  0  0  0  0
    2.6378   -0.1271    0.0000 C   0  0  0  0  0  0  0  0  0  0  0  0
    1.9233    1.1104    0.0000 C   0  0  0  0  0  0  0  0  0  0  0  0
    1.1387    0.8555    0.0000 N   0  0  0  0  0  0  0  0  0  0  0  0
    0.6538    1.5229    0.0000 C   0  0  0  0  0  0  0  0  0  0  0  0
    1.1387    2.1904    0.0000 N   0  0  0  0  0  0  0  0  0  0  0  0
    1.9233    1.9354    0.0000 C   0  0  0  0  0  0  0  0  0  0  0  0
    2.6378    2.3479    0.0000 C   0  0  0  0  0  0  0  0  0  0  0  0
    2.6378    3.1729    0.0000 O   0  0  0  0  0  0  0  0  0  0  0  0
  1  2  1  0  0  0  0
  2  3  4  0  0  0  0
  3  4  2  0  0  0  0
  3  5  4  0  0  0  0
  5  6  1  0  0  0  0
  5  7  4  0  0  0  0
  7  8  4  0  0  0  0
  8  9  4  0  0  0  0
  9 10  4  0  0  0  0
 10 11  4  0  0  0  0
  7 11  4  0  0  0  0
 11 12  4  0  0  0  0
  2 12  4  0  0  0  0
 12 13  2  0  0  0  0
M  STY  1   1 DAT
M  SAL   1  1  10
M  SDT   1 MRV_IMPLICIT_H                                        
M  SDD   1     0.0000    0.0000    DR    ALL  0       0  
M  SED   1 IMPL_H1
M  END

> <ChembankId>
856

> <SMILES>
Cn1c(=O)n(C)c2nc[nH]c2c1=O

> <InChI>
1/C7H8N4O2/c1-10-5-4(8-3-9-5)6(12)11(2)7(10)13/h3H,1-2H3,(H,8,9)

$$$$
119
  Marvin  11101114192D          

 16 17  0  0  0  0            999 V2000
    2.8579    0.0000    0.0000 O   0  0  0  0  0  0  0  0  0  0  0  0
    2.1434   -0.4125    0.0000 C   0  0  0  0  0  0  0  0  0  0  0  0
    1.4289    0.0000    0.0000 O   0  0  0  0  0  0  0  0  0  0  0  0
    2.1434   -1.2375    0.0000 C   0  0  0  0  0  0  0  0  0  0  0  0
    1.4289   -1.6500    0.0000 C   0  0  0  0  0  0  0  0  0  0  0  0
    1.4289   -2.4750    0.0000 C   0  0  0  0  0  0  0  0  0  0  0  0
    2.1434   -2.8875    0.0000 C   0  0  0  0  0  0  0  0  0  0  0  0
    2.8579   -2.4750    0.0000 C   0  0  0  0  0  0  0  0  0  0  0  0
    2.8579   -1.6500    0.0000 C   0  0  0  0  0  0  0  0  0  0  0  0
    3.5724   -1.2375    0.0000 N   0  0  0  0  0  0  0  0  0  0  0  0
    4.2868   -1.6500    0.0000 C   0  0  0  0  0  0  0  0  0  0  0  0
    5.0013   -1.2375    0.0000 C   0  0  0  0  0  0  0  0  0  0  0  0
    5.7158   -1.6500    0.0000 C   0  0  0  0  0  0  0  0  0  0  0  0
    5.7158   -2.4750    0.0000 C   0  0  0  0  0  0  0  0  0  0  0  0
    5.0013   -2.8875    0.0000 C   0  0  0  0  0  0  0  0  0  0  0  0
    4.2868   -2.4750    0.0000 C   0  0  0  0  0  0  0  0  0  0  0  0
  1  2  1  0  0  0  0
  2  3  2  0  0  0  0
  2  4  1  0  0  0  0
  4  5  4  0  0  0  0
  5  6  4  0  0  0  0
  6  7  4  0  0  0  0
  7  8  4  0  0  0  0
  8  9  4  0  0  0  0
  4  9  4  0  0  0  0
  9 10  1  0  0  0  0
 10 11  1  0  0  0  0
 11 12  4  0  0  0  0
 12 13  4  0  0  0  0
 13 14  4  0  0  0  0
 14 15  4  0  0  0  0
 15 16  4  0  0  0  0
 11 16  4  0  0  0  0
M  END

> <ChembankId>
119

> <SMILES>
OC(=O)c1ccccc1Nc2ccccc2

> <InChI>
1/C13H11NO2/c15-13(16)11-8-4-5-9-12(11)14-10-6-2-1-3-7-10/h1-9,14H,(H,15,16)

$$$$
1489
  Marvin  11101114192D          

 25 26  0  0  0  0            999 V2000
    0.7145   -6.1875    0.0000 C   0  0  0  0  0  0  0  0  0  0  0  0
    1.4289   -6.6000    0.0000 C   0  0  0  0  0  0  0  0  0  0  0  0
    2.1434   -6.1875    0.0000 C   0  0  0  0  0  0  0  0  0  0  0  0
    2.8579   -6.6000    0.0000 N   0  0  0  0  0  0  0  0  0  0  0  0
    3.5724   -6.1875    0.0000 C   0  0  0  0  0  0  0  0  0  0  0  0
    4.2868   -6.6000    0.0000 C   0  0  0  0  0  0  0  0  0  0  0  0
    4.2868   -7.4250    0.0000 O   0  0  0  0  0  0  0  0  0  0  0  0
    5.0013   -6.1875    0.0000 C   0  0  0  0  0  0  0  0  0  0  0  0
    5.7158   -6.6000    0.0000 O   0  0  0  0  0  0  0  0  0  0  0  0
    6.4302   -6.1875    0.0000 C   0  0  0  0  0  0  0  0  0  0  0  0
    6.4302   -5.3625    0.0000 C   0  0  0  0  0  0  0  0  0  0  0  0
    7.1447   -4.9500    0.0000 C   0  0  0  0  0  0  0  0  0  0  0  0
    7.8592   -5.3625    0.0000 C   0  0  0  0  0  0  0  0  0  0  0  0
    7.8592   -6.1875    0.0000 C   0  0  0  0  0  0  0  0  0  0  0  0
    7.1447   -6.6000    0.0000 C   0  0  0  0  0  0  0  0  0  0  0  0
    7.1447   -7.4250    0.0000 C   0  0  0  0  0  0  0  0  0  0  0  0
    7.8592   -7.8375    0.0000 O   0  0  0  0  0  0  0  0  0  0  0  0
    6.4302   -7.8375    0.0000 C   0  0  0  0  0  0  0  0  0  0  0  0
    6.4302   -8.6625    0.0000 C   0  0  0  0  0  0  0  0  0  0  0  0
    7.1447   -9.0750    0.0000 C   0  0  0  0  0  0  0  0  0  0  0  0
    7.8592   -8.6625    0.0000 C   0  0  0  0  0  0  0  0  0  0  0  0
    8.5737   -9.0750    0.0000 C   0  0  0  0  0  0  0  0  0  0  0  0
    8.5737   -9.9000    0.0000 C   0  0  0  0  0  0  0  0  0  0  0  0
    7.8592  -10.3125    0.0000 C   0  0  0  0  0  0  0  0  0  0  0  0
    7.1447   -9.9000    0.0000 C   0  0  0  0  0  0  0  0  0  0  0  0
  1  2  1  0  0  0  0
  2  3  1  0  0  0  0
  3  4  1  0  0  0  0
  4  5  1  0  0  0  0
  5  6  1  0  0  0  0
  6  7  1  0  0  0  0
  6  8  1  0  0  0  0
  8  9  1  0  0  0  0
  9 10  1  0  0  0  0
 10 11  4  0  0  0  0
 11 12  4  0  0  0  0
 12 13  4  0  0  0  0
 13 14  4  0  0  0  0
 14 15  4  0  0  0  0
 10 15  4  0  0  0  0
 15 16  1  0  0  0  0
 16 17  2  0  0  0  0
 16 18  1  0  0  0  0
 18 19  1  0  0  0  0
 19 20  1  0  0  0  0
 20 21  4  0  0  0  0
 21 22  4  0  0  0  0
 22 23  4  0  0  0  0
 23 24  4  0  0  0  0
 24 25  4  0  0  0  0
 20 25  4  0  0  0  0
M  END

> <ChembankId>
1489

> <SMILES>
CCCNCC(O)COc1ccccc1C(=O)CCc2ccccc2

> <InChI>
1/C21H27NO3/c1-2-14-22-15-18(23)16-25-21-11-7-6-10-19(21)20(24)13-12-17-8-4-3-5-9-17/h3-11,18,22-23H,2,12-16H2,1H3

$$$$
1463
  Marvin  11101114192D          

 21 23  0  0  0  0            999 V2000
   -2.1434   -3.7125    0.0000 C   0  0  0  0  0  0  0  0  0  0  0  0
   -2.1434   -2.8875    0.0000 O   0  0  0  0  0  0  0  0  0  0  0  0
   -1.4289   -2.4750    0.0000 C   0  0  0  0  0  0  0  0  0  0  0  0
   -1.4289   -1.6500    0.0000 C   0  0  0  0  0  0  0  0  0  0  0  0
   -0.7145   -1.2375    0.0000 C   0  0  0  0  0  0  0  0  0  0  0  0
    0.0000   -1.6500    0.0000 C   0  0  0  0  0  0  0  0  0  0  0  0
    0.0000   -2.4750    0.0000 C   0  0  0  0  0  0  0  0  0  0  0  0
   -0.7145   -2.8875    0.0000 C   0  0  0  0  0  0  0  0  0  0  0  0
    0.7145   -1.2375    0.0000 C   0  0  0  0  0  0  0  0  0  0  0  0
    0.7145   -0.4125    0.0000 C   0  0  0  0  0  0  0  0  0  0  0  0
    1.4289    0.0000    0.0000 C   0  0  0  0  0  0  0  0  0  0  0  0
    1.4289    0.8250    0.0000 O   0  0  0  0  0  0  0  0  0  0  0  0
    2.1434   -0.4125    0.0000 C   0  0  0  0  0  0  0  0  0  0  0  0
    2.8579    0.0000    0.0000 C   0  0  0  0  0  0  0  0  0  0  0  0
    2.8579    0.8250    0.0000 O   0  0  0  0  0  0  0  0  0  0  0  0
    3.5724   -0.4125    0.0000 C   0  0  0  0  0  0  0  0  0  0  0  0
    3.5724   -1.2375    0.0000 C   0  0  0  0  0  0  0  0  0  0  0  0
    4.2868   -1.6500    0.0000 O   0  0  0  0  0  0  0  0  0  0  0  0
    2.8579   -1.6500    0.0000 C   0  0  0  0  0  0  0  0  0  0  0  0
    2.1434   -1.2375    0.0000 C   0  0  0  0  0  0  0  0  0  0  0  0
    1.4289   -1.6500    0.0000 O   0  0  0  0  0  0  0  0  0  0  0  0
  1  2  1  0  0  0  0
  2  3  1  0  0  0  0
  3  4  4  0  0  0  0
  4  5  4  0  0  0  0
  5  6  4  0  0  0  0
  6  7  4  0  0  0  0
  7  8  4  0  0  0  0
  3  8  4  0  0  0  0
  6  9  1  0  0  0  0
  9 10  4  0  0  0  0
 10 11  4  0  0  0  0
 11 12  2  0  0  0  0
 11 13  4  0  0  0  0
 13 14  4  0  0  0  0
 14 15  1  0  0  0  0
 14 16  4  0  0  0  0
 16 17  4  0  0  0  0
 17 18  1  0  0  0  0
 17 19  4  0  0  0  0
 19 20  4  0  0  0  0
 13 20  4  0  0  0  0
 20 21  4  0  0  0  0
  9 21  4  0  0  0  0
M  END

> <ChembankId>
1463

> <SMILES>
COc1ccc(cc1)c2cc(=O)c3c(O)cc(O)cc3o2

> <InChI>
1/C16H12O5/c1-20-11-4-2-9(3-5-11)14-8-13(19)16-12(18)6-10(17)7-15(16)21-14/h2-8,17-18H,1H3

$$$$
784
  Marvin  11101114192D          

 17 18  0  0  1  0            999 V2000
    0.7145    6.7661    0.0000 N   0  0  0  0  0  0  0  0  0  0  0  0
    0.7145    5.9411    0.0000 C   0  0  0  0  0  0  0  0  0  0  0  0
    1.4289    5.5286    0.0000 N   0  0  0  0  0  0  0  0  0  0  0  0
    1.4289    4.7036    0.0000 C   0  0  0  0  0  0  0  0  0  0  0  0
    0.7145    4.2911    0.0000 N   0  0  0  0  0  0  0  0  0  0  0  0
    0.7145    3.4661    0.0000 C   0  0  2  0  0  0  0  0  0  0  0  0
    1.3819    2.9812    0.0000 O   0  0  0  0  0  0  0  0  0  0  0  0
    1.1270    2.1965    0.0000 C   0  0  2  0  0  0  0  0  0  0  0  0
    1.6119    1.5291    0.0000 C   0  0  0  0  0  0  0  0  0  0  0  0
    2.4324    1.6153    0.0000 O   0  0  0  0  0  0  0  0  0  0  0  0
    0.3020    2.1965    0.0000 C   0  0  1  0  0  0  0  0  0  0  0  0
   -0.1830    1.5291    0.0000 O   0  0  0  0  0  0  0  0  0  0  0  0
    0.0470    2.9812    0.0000 C   0  0  1  0  0  0  0  0  0  0  0  0
   -0.7376    3.2361    0.0000 O   0  0  0  0  0  0  0  0  0  0  0  0
    0.0000    4.7036    0.0000 C   0  0  0  0  0  0  0  0  0  0  0  0
   -0.7145    4.2911    0.0000 O   0  0  0  0  0  0  0  0  0  0  0  0
   -0.0000    5.5286    0.0000 N   0  0  0  0  0  0  0  0  0  0  0  0
  1  2  1  0  0  0  0
  2  3  4  0  0  0  0
  3  4  4  0  0  0  0
  4  5  4  0  0  0  0
  6  5  1  6  0  0  0
  6  7  1  0  0  0  0
  7  8  1  0  0  0  0
  8  9  1  6  0  0  0
  9 10  1  0  0  0  0
  8 11  1  0  0  0  0
 11 12  1  1  0  0  0
 11 13  1  0  0  0  0
  6 13  1  0  0  0  0
 13 14  1  1  0  0  0
  5 15  4  0  0  0  0
 15 16  2  0  0  0  0
 15 17  4  0  0  0  0
  2 17  4  0  0  0  0
M  END

> <ChembankId>
784

> <SMILES>
Nc1ncn([C@@H]2O[C@H](CO)[C@@H](O)[C@H]2O)c(=O)n1

> <InChI>
1/C8H12N4O5/c9-7-10-2-12(8(16)11-7)6-5(15)4(14)3(1-13)17-6/h2-6,13-15H,1H2,(H2,9,11,16)

$$$$
1610
  Marvin  11101114192D          

 22 24  0  0  1  0            999 V2000
   -2.1434   -3.7125    0.0000 C   0  0  0  0  0  0  0  0  0  0  0  0
   -2.1434   -2.8875    0.0000 O   0  0  0  0  0  0  0  0  0  0  0  0
   -1.4289   -2.4750    0.0000 C   0  0  0  0  0  0  0  0  0  0  0  0
   -1.4289   -1.6500    0.0000 C   0  0  0  0  0  0  0  0  0  0  0  0
   -0.7145   -1.2375    0.0000 C   0  0  0  0  0  0  0  0  0  0  0  0
    0.0000   -1.6500    0.0000 C   0  0  0  0  0  0  0  0  0  0  0  0
    0.0000   -2.4750    0.0000 C   0  0  0  0  0  0  0  0  0  0  0  0
   -0.7145   -2.8875    0.0000 C   0  0  0  0  0  0  0  0  0  0  0  0
   -0.7145   -3.7125    0.0000 O   0  0  0  0  0  0  0  0  0  0  0  0
    0.7145   -1.2375    0.0000 C   0  0  2  0  0  0  0  0  0  0  0  0
    0.7145   -0.4125    0.0000 C   0  0  0  0  0  0  0  0  0  0  0  0
    1.4289    0.0000    0.0000 C   0  0  0  0  0  0  0  0  0  0  0  0
    1.4289    0.8250    0.0000 O   0  0  0  0  0  0  0  0  0  0  0  0
    2.1434   -0.4125    0.0000 C   0  0  0  0  0  0  0  0  0  0  0  0
    2.8579    0.0000    0.0000 C   0  0  0  0  0  0  0  0  0  0  0  0
    2.8579    0.8250    0.0000 O   0  0  0  0  0  0  0  0  0  0  0  0
    3.5724   -0.4125    0.0000 C   0  0  0  0  0  0  0  0  0  0  0  0
    3.5724   -1.2375    0.0000 C   0  0  0  0  0  0  0  0  0  0  0  0
    4.2868   -1.6500    0.0000 O   0  0  0  0  0  0  0  0  0  0  0  0
    2.8579   -1.6500    0.0000 C   0  0  0  0  0  0  0  0  0  0  0  0
    2.1434   -1.2375    0.0000 C   0  0  0  0  0  0  0  0  0  0  0  0
    1.4289   -1.6500    0.0000 O   0  0  0  0  0  0  0  0  0  0  0  0
  1  2  1  0  0  0  0
  2  3  1  0  0  0  0
  3  4  4  0  0  0  0
  4  5  4  0  0  0  0
  5  6  4  0  0  0  0
  6  7  4  0  0  0  0
  7  8  4  0  0  0  0
  3  8  4  0  0  0  0
  8  9  1  0  0  0  0
 10  6  1  6  0  0  0
 10 11  1  0  0  0  0
 11 12  1  0  0  0  0
 12 13  2  0  0  0  0
 12 14  1  0  0  0  0
 14 15  4  0  0  0  0
 15 16  1  0  0  0  0
 15 17  4  0  0  0  0
 17 18  4  0  0  0  0
 18 19  1  0  0  0  0
 18 20  4  0  0  0  0
 20 21  4  0  0  0  0
 14 21  4  0  0  0  0
 21 22  1  0  0  0  0
 10 22  1  0  0  0  0
M  END

> <ChembankId>
1610

> <SMILES>
COc1ccc(cc1O)[C@@H]2CC(=O)c3c(O)cc(O)cc3O2

> <InChI>
1/C16H14O6/c1-21-13-3-2-8(4-10(13)18)14-7-12(20)16-11(19)5-9(17)6-15(16)22-14/h2-6,14,17-19H,7H2,1H3

$$$$
701
  Marvin  11101114192D          

 18 19  0  0  0  0            999 V2000
    1.4289   -1.6500    0.0000 N   0  0  0  0  0  0  0  0  0  0  0  0
    1.4289   -2.4750    0.0000 C   0  0  0  0  0  0  0  0  0  0  0  0
    2.1434   -2.8875    0.0000 C   0  0  0  0  0  0  0  0  0  0  0  0
    2.8579   -2.4750    0.0000 Br  0  0  0  0  0  0  0  0  0  0  0  0
    2.1434   -3.7125    0.0000 C   0  0  0  0  0  0  0  0  0  0  0  0
    1.4289   -4.1250    0.0000 C   0  0  0  0  0  0  0  0  0  0  0  0
    1.4289   -4.9500    0.0000 Br  0  0  0  0  0  0  0  0  0  0  0  0
    0.7145   -3.7125    0.0000 C   0  0  0  0  0  0  0  0  0  0  0  0
    0.7145   -2.8875    0.0000 C   0  0  0  0  0  0  0  0  0  0  0  0
    0.0000   -2.4750    0.0000 C   0  0  0  0  0  0  0  0  0  0  0  0
   -0.7145   -2.8875    0.0000 N   0  0  0  0  0  0  0  0  0  0  0  0
   -1.4289   -2.4750    0.0000 C   0  0  0  0  0  0  0  0  0  0  0  0
   -2.1434   -2.8875    0.0000 C   0  0  0  0  0  0  0  0  0  0  0  0
   -2.8579   -2.4750    0.0000 C   0  0  0  0  0  0  0  0  0  0  0  0
   -2.8579   -1.6500    0.0000 C   0  0  0  0  0  0  0  0  0  0  0  0
   -3.5724   -1.2375    0.0000 O   0  0  0  0  0  0  0  0  0  0  0  0
   -2.1434   -1.2375    0.0000 C   0  0  0  0  0  0  0  0  0  0  0  0
   -1.4289   -1.6500    0.0000 C   0  0  0  0  0  0  0  0  0  0  0  0
  1  2  1  0  0  0  0
  2  3  4  0  0  0  0
  3  4  1  0  0  0  0
  3  5  4  0  0  0  0
  5  6  4  0  0  0  0
  6  7  1  0  0  0  0
  6  8  4  0  0  0  0
  8  9  4  0  0  0  0
  2  9  4  0  0  0  0
  9 10  1  0  0  0  0
 10 11  1  0  0  0  0
 11 12  1  0  0  0  0
 12 13  1  0  0  0  0
 13 14  1  0  0  0  0
 14 15  1  0  0  0  0
 15 16  1  0  0  0  0
 15 17  1  0  0  0  0
 17 18  1  0  0  0  0
 12 18  1  0  0  0  0
M  END

> <ChembankId>
701

> <SMILES>
Nc1c(Br)cc(Br)cc1CNC2CCC(O)CC2

> <InChI>
1/C13H18Br2N2O/c14-9-5-8(13(16)12(15)6-9)7-17-10-1-3-11(18)4-2-10/h5-6,10-11,17-18H,1-4,7,16H2

$$$$
2139
  Marvin  11101114192D          

 21 25  0  0  1  0            999 V2000
    2.7290   -1.3924    0.0000 O   0  0  0  0  0  0  0  0  0  0  0  0
    2.0143   -0.9804    0.0000 C   0  0  1  0  0  0  0  0  0  0  0  0
    2.0143   -0.1554    0.0000 C   0  0  0  0  0  0  0  0  0  0  0  0
    1.3018    0.2571    0.0000 C   0  0  0  0  0  0  0  0  0  0  0  0
    0.9964    1.1143    0.0000 C   0  0  0  0  0  0  0  0  0  0  0  0
    0.1714    1.1143    0.0000 C   0  0  0  0  0  0  0  0  0  0  0  0
   -0.1286    0.2571    0.0000 N   0  0  0  0  0  0  0  0  0  0  0  0
   -0.8411   -0.1554    0.0000 C   0  0  0  0  0  0  0  0  0  0  0  0
   -0.8411   -0.9804    0.0000 C   0  0  0  0  0  0  0  0  0  0  0  0
   -1.5560   -1.3920    0.0000 C   0  0  0  0  0  0  0  0  0  0  0  0
   -1.5570   -2.2170    0.0000 C   0  0  0  0  0  0  0  0  0  0  0  0
   -2.1708   -2.7683    0.0000 O   0  0  0  0  0  0  0  0  0  0  0  0
   -1.8361   -3.5224    0.0000 C   0  0  0  0  0  0  0  0  0  0  0  0
   -1.0155   -3.4371    0.0000 O   0  0  0  0  0  0  0  0  0  0  0  0
   -0.8430   -2.6304    0.0000 C   0  0  0  0  0  0  0  0  0  0  0  0
   -0.1281   -2.2187    0.0000 C   0  0  0  0  0  0  0  0  0  0  0  0
   -0.1271   -1.3937    0.0000 C   0  0  0  0  0  0  0  0  0  0  0  0
    0.5839   -0.9804    0.0000 C   0  0  1  0  0  0  0  0  0  0  0  0
    0.5839   -0.1554    0.0000 C   0  0  1  0  0  0  0  0  0  0  0  0
    1.3018   -1.3929    0.0000 C   0  0  2  0  0  0  0  0  0  0  0  0
    1.3031   -2.2179    0.0000 O   0  0  0  0  0  0  0  0  0  0  0  0
  2  1  1  6  0  0  0
  2  3  1  0  0  0  0
  3  4  2  0  0  0  0
  4  5  1  0  0  0  0
  5  6  1  0  0  0  0
  6  7  1  0  0  0  0
  7  8  1  0  0  0  0
  8  9  1  0  0  0  0
  9 10  4  0  0  0  0
 10 11  4  0  0  0  0
 11 12  1  0  0  0  0
 12 13  1  0  0  0  0
 13 14  1  0  0  0  0
 14 15  1  0  0  0  0
 11 15  4  0  0  0  0
 15 16  4  0  0  0  0
 16 17  4  0  0  0  0
  9 17  4  0  0  0  0
 18 17  1  1  0  0  0
 18 19  1  0  0  0  0
 19  7  1  6  0  0  0
  4 19  1  0  0  0  0
 18 20  1  0  0  0  0
  2 20  1  0  0  0  0
 20 21  1  1  0  0  0
M  END

> <ChembankId>
2139

> <SMILES>
O[C@H]1C=C2CCN3Cc4cc5OCOc5cc4[C@@H]([C@H]32)[C@@H]1O

> <InChI>
1/C16H17NO4/c18-11-3-8-1-2-17-6-9-4-12-13(21-7-20-12)5-10(9)14(15(8)17)16(11)19/h3-5,11,14-16,18-19H,1-2,6-7H2

$$$$
1000042
  Marvin  11101114192D          

 15 15  0  0  0  0            999 V2000
    2.8579    3.3000    0.0000 N   0  0  0  0  0  0  0  0  0  0  0  0
    2.8579    2.4750    0.0000 C   0  0  0  0  0  0  0  0  0  0  0  0
    3.5724    2.0625    0.0000 N   0  0  0  0  0  0  0  0  0  0  0  0
    2.1434    2.0625    0.0000 N   0  0  0  0  0  0  0  0  0  0  0  0
    2.1434    1.2375    0.0000 C   0  0  0  0  0  0  0  0  0  0  0  0
    2.8579    0.8250    0.0000 O   0  0  0  0  0  0  0  0  0  0  0  0
    1.4289    0.8250    0.0000 C   0  0  0  0  0  0  0  0  0  0  0  0
    1.4289   -0.0000    0.0000 N   0  0  0  0  0  0  0  0  0  0  0  0
    0.7145   -0.4125    0.0000 C   0  0  0  0  0  0  0  0  0  0  0  0
    0.7145   -1.2375    0.0000 Cl  0  0  0  0  0  0  0  0  0  0  0  0
    0.0000    0.0000    0.0000 C   0  0  0  0  0  0  0  0  0  0  0  0
   -0.7145   -0.4125    0.0000 N   0  0  0  0  0  0  0  0  0  0  0  0
    0.0000    0.8250    0.0000 N   0  0  0  0  0  0  0  0  0  0  0  0
    0.7145    1.2375    0.0000 C   0  0  0  0  0  0  0  0  0  0  0  0
    0.7145    2.0625    0.0000 N   0  0  0  0  0  0  0  0  0  0  0  0
  1  2  1  0  0  0  0
  2  3  2  0  0  0  0
  2  4  1  0  0  0  0
  4  5  1  0  0  0  0
  5  6  2  0  0  0  0
  5  7  1  0  0  0  0
  7  8  4  0  0  0  0
  8  9  4  0  0  0  0
  9 10  1  0  0  0  0
  9 11  4  0  0  0  0
 11 12  1  0  0  0  0
 11 13  4  0  0  0  0
 13 14  4  0  0  0  0
  7 14  4  0  0  0  0
 14 15  1  0  0  0  0
M  END

> <ChembankId>
1000042

> <SMILES>
NC(=N)NC(=O)c1nc(Cl)c(N)nc1N

> <InChI>
1/C6H8ClN7O/c7-2-4(9)13-3(8)1(12-2)5(15)14-6(10)11/h(H4,8,9,13)(H4,10,11,14,15)

$$$$
142
  Marvin  11101114192D          

 16 16  0  0  0  0            999 V2000
   -2.0010   -2.7055    0.0000 C   0  0  0  0  0  0  0  0  0  0  0  0
   -1.4289   -3.3000    0.0000 C   0  0  0  0  0  0  0  0  0  0  0  0
   -0.6281   -3.1018    0.0000 O   0  0  0  0  0  0  0  0  0  0  0  0
   -0.0561   -3.6963    0.0000 C   0  0  0  0  0  0  0  0  0  0  0  0
   -0.2849   -4.4890    0.0000 O   0  0  0  0  0  0  0  0  0  0  0  0
    0.7448   -3.4982    0.0000 C   0  0  0  0  0  0  0  0  0  0  0  0
    0.9429   -4.2990    0.0000 C   0  0  0  0  0  0  0  0  0  0  0  0
    0.5466   -2.6973    0.0000 C   0  0  0  0  0  0  0  0  0  0  0  0
    1.5456   -3.3000    0.0000 O   0  0  0  0  0  0  0  0  0  0  0  0
    2.1177   -3.8945    0.0000 C   0  0  0  0  0  0  0  0  0  0  0  0
    2.9185   -3.6963    0.0000 C   0  0  0  0  0  0  0  0  0  0  0  0
    3.4906   -4.2908    0.0000 C   0  0  0  0  0  0  0  0  0  0  0  0
    3.2617   -5.0834    0.0000 C   0  0  0  0  0  0  0  0  0  0  0  0
    3.8338   -5.6779    0.0000 Cl  0  0  0  0  0  0  0  0  0  0  0  0
    2.4609   -5.2816    0.0000 C   0  0  0  0  0  0  0  0  0  0  0  0
    1.8889   -4.6871    0.0000 C   0  0  0  0  0  0  0  0  0  0  0  0
  1  2  1  0  0  0  0
  2  3  1  0  0  0  0
  3  4  1  0  0  0  0
  4  5  2  0  0  0  0
  4  6  1  0  0  0  0
  6  7  1  0  0  0  0
  6  8  1  0  0  0  0
  6  9  1  0  0  0  0
  9 10  1  0  0  0  0
 10 11  4  0  0  0  0
 11 12  4  0  0  0  0
 12 13  4  0  0  0  0
 13 14  1  0  0  0  0
 13 15  4  0  0  0  0
 15 16  4  0  0  0  0
 10 16  4  0  0  0  0
M  END

> <ChembankId>
142

> <SMILES>
CCOC(=O)C(C)(C)Oc1ccc(Cl)cc1

> <InChI>
1/C12H15ClO3/c1-4-15-11(14)12(2,3)16-10-7-5-9(13)6-8-10/h5-8H,4H2,1-3H3

$$$$
3103618
  Marvin  11101114192D          

 22 25  0  0  0  0            999 V2000
    0.0000   -1.6500    0.0000 C   0  0  0  0  0  0  0  0  0  0  0  0
    0.7145   -1.2375    0.0000 C   0  0  0  0  0  0  0  0  0  0  0  0
    0.7145   -0.4125    0.0000 C   0  0  0  0  0  0  0  0  0  0  0  0
    1.4289    0.0000    0.0000 C   0  0  0  0  0  0  0  0  0  0  0  0
    2.1434   -0.4125    0.0000 C   0  0  0  0  0  0  0  0  0  0  0  0
    2.8579    0.0000    0.0000 N   0  0  0  0  0  0  0  0  0  0  0  0
    3.5724   -0.4125    0.0000 C   0  0  0  0  0  0  0  0  0  0  0  0
    4.3570   -0.1576    0.0000 N   0  0  0  0  0  0  0  0  0  0  0  0
    4.8419   -0.8250    0.0000 C   0  0  0  0  0  0  0  0  0  0  0  0
    4.3570   -1.4924    0.0000 C   0  0  0  0  0  0  0  0  0  0  0  0
    3.5724   -1.2375    0.0000 C   0  0  0  0  0  0  0  0  0  0  0  0
    3.6586   -2.0580    0.0000 O   0  0  0  0  0  0  0  0  0  0  0  0
    2.8579   -1.6500    0.0000 C   0  0  0  0  0  0  0  0  0  0  0  0
    2.8579   -2.4750    0.0000 O   0  0  0  0  0  0  0  0  0  0  0  0
    2.1434   -1.2375    0.0000 C   0  0  0  0  0  0  0  0  0  0  0  0
    1.4289   -1.6500    0.0000 C   0  0  0  0  0  0  0  0  0  0  0  0
    4.6119    0.6271    0.0000 C   0  0  0  0  0  0  0  0  0  0  0  0
    4.0599    1.2402    0.0000 C   0  0  0  0  0  0  0  0  0  0  0  0
    4.3148    2.0248    0.0000 C   0  0  0  0  0  0  0  0  0  0  0  0
    5.1218    2.1963    0.0000 C   0  0  0  0  0  0  0  0  0  0  0  0
    5.6738    1.5832    0.0000 C   0  0  0  0  0  0  0  0  0  0  0  0
    5.4189    0.7986    0.0000 C   0  0  0  0  0  0  0  0  0  0  0  0
  1  2  1  0  0  0  0
  2  3  4  0  0  0  0
  3  4  4  0  0  0  0
  4  5  4  0  0  0  0
  5  6  1  0  0  0  0
  6  7  2  0  0  0  0
  7  8  1  0  0  0  0
  8  9  1  0  0  0  0
  9 10  1  0  0  0  0
 10 11  1  0  0  0  0
  7 11  1  0  0  0  0
 11 12  1  0  0  0  0
 11 13  1  0  0  0  0
 13 14  2  0  0  0  0
 13 15  1  0  0  0  0
  5 15  4  0  0  0  0
 15 16  4  0  0  0  0
  2 16  4  0  0  0  0
  8 17  1  0  0  0  0
 17 18  4  0  0  0  0
 18 19  4  0  0  0  0
 19 20  4  0  0  0  0
 20 21  4  0  0  0  0
 21 22  4  0  0  0  0
 17 22  4  0  0  0  0
M  END

> <ChembankId>
3103618

> <SMILES>
Cc1ccc2N=C3N(CCC3(O)C(=O)c2c1)c4ccccc4

> <InChI>
1/C18H16N2O2/c1-12-7-8-15-14(11-12)16(21)18(22)9-10-20(17(18)19-15)13-5-3-2-4-6-13/h2-8,11,22H,9-10H2,1H3

$$$$
909
  Marvin  11101114192D          

 25 29  0  0  0  0            999 V2000
   -2.0514   -4.0458    0.0000 C   0  0  0  0  0  0  0  0  0  0  0  0
   -1.6498   -3.3251    0.0000 O   0  0  0  0  0  0  0  0  0  0  0  0
   -0.8249   -3.3125    0.0000 C   0  0  0  0  0  0  0  0  0  0  0  0
   -0.4233   -2.5919    0.0000 C   0  0  0  0  0  0  0  0  0  0  0  0
    0.4016   -2.5793    0.0000 C   0  0  0  0  0  0  0  0  0  0  0  0
    0.8249   -3.2875    0.0000 C   0  0  0  0  0  0  0  0  0  0  0  0
    1.6498   -3.2749    0.0000 C   0  0  0  0  0  0  0  0  0  0  0  0
    2.0731   -3.9830    0.0000 C   0  0  0  0  0  0  0  0  0  0  0  0
    2.8980   -3.9705    0.0000 C   0  0  0  0  0  0  0  0  0  0  0  0
    3.2996   -3.2498    0.0000 C   0  0  0  0  0  0  0  0  0  0  0  0
    4.1245   -3.2373    0.0000 C   0  0  0  0  0  0  0  0  0  0  0  0
    4.6672   -2.6158    0.0000 O   0  0  0  0  0  0  0  0  0  0  0  0
    5.4259   -2.9399    0.0000 C   0  0  0  0  0  0  0  0  0  0  0  0
    5.3521   -3.7616    0.0000 O   0  0  0  0  0  0  0  0  0  0  0  0
    4.5478   -3.9454    0.0000 C   0  0  0  0  0  0  0  0  0  0  0  0
    4.1463   -4.6660    0.0000 C   0  0  0  0  0  0  0  0  0  0  0  0
    3.3213   -4.6786    0.0000 C   0  0  0  0  0  0  0  0  0  0  0  0
    2.9198   -5.3993    0.0000 C   0  0  0  0  0  0  0  0  0  0  0  0
    2.0949   -5.4118    0.0000 C   0  0  0  0  0  0  0  0  0  0  0  0
    1.6715   -4.7037    0.0000 N   0  3  0  0  0  0  0  0  0  0  0  0
    0.8466   -4.7162    0.0000 C   0  0  0  0  0  0  0  0  0  0  0  0
    0.4233   -4.0081    0.0000 C   0  0  0  0  0  0  0  0  0  0  0  0
   -0.4016   -4.0207    0.0000 C   0  0  0  0  0  0  0  0  0  0  0  0
   -0.8032   -4.7413    0.0000 O   0  0  0  0  0  0  0  0  0  0  0  0
   -1.6281   -4.7539    0.0000 C   0  0  0  0  0  0  0  0  0  0  0  0
  1  2  1  0  0  0  0
  2  3  1  0  0  0  0
  3  4  4  0  0  0  0
  4  5  4  0  0  0  0
  5  6  4  0  0  0  0
  6  7  4  0  0  0  0
  7  8  4  0  0  0  0
  8  9  1  0  0  0  0
  9 10  4  0  0  0  0
 10 11  4  0  0  0  0
 11 12  1  0  0  0  0
 12 13  1  0  0  0  0
 13 14  1  0  0  0  0
 14 15  1  0  0  0  0
 11 15  4  0  0  0  0
 15 16  4  0  0  0  0
 16 17  4  0  0  0  0
  9 17  4  0  0  0  0
 17 18  1  0  0  0  0
 18 19  1  0  0  0  0
 19 20  1  0  0  0  0
  8 20  4  0  0  0  0
 20 21  4  0  0  0  0
 21 22  4  0  0  0  0
  6 22  4  0  0  0  0
 22 23  4  0  0  0  0
  3 23  4  0  0  0  0
 23 24  1  0  0  0  0
 24 25  1  0  0  0  0
M  CHG  1  20   1
M  END

> <ChembankId>
909

> <SMILES>
COc1ccc2cc3-c4cc5OCOc5cc4CC[n+]3cc2c1OC

> <InChI>
1/C20H18NO4/c1-22-17-4-3-12-7-16-14-9-19-18(24-11-25-19)8-13(14)5-6-21(16)10-15(12)20(17)23-2/h3-4,7-10H,5-6,11H2,1-2H3/q+1

$$$$
1523
  Marvin  11101114192D          

 17 17  0  0  0  0            999 V2000
   -2.8579   -2.4750    0.0000 C   0  0  0  0  0  0  0  0  0  0  0  0
   -2.1434   -2.0625    0.0000 C   0  0  0  0  0  0  0  0  0  0  0  0
   -1.7309   -2.7770    0.0000 C   0  0  0  0  0  0  0  0  0  0  0  0
   -2.5559   -1.3480    0.0000 C   0  0  0  0  0  0  0  0  0  0  0  0
   -1.4289   -1.6500    0.0000 N   0  0  0  0  0  0  0  0  0  0  0  0
   -0.7145   -2.0625    0.0000 C   0  0  0  0  0  0  0  0  0  0  0  0
    0.0000   -1.6500    0.0000 C   0  0  0  0  0  0  0  0  0  0  0  0
    0.0000   -0.8250    0.0000 O   0  0  0  0  0  0  0  0  0  0  0  0
    0.7145   -2.0625    0.0000 C   0  0  0  0  0  0  0  0  0  0  0  0
    1.4289   -1.6500    0.0000 C   0  0  0  0  0  0  0  0  0  0  0  0
    2.1434   -2.0625    0.0000 C   0  0  0  0  0  0  0  0  0  0  0  0
    2.1434   -2.8875    0.0000 C   0  0  0  0  0  0  0  0  0  0  0  0
    2.8579   -3.3000    0.0000 O   0  0  0  0  0  0  0  0  0  0  0  0
    1.4289   -3.3000    0.0000 C   0  0  0  0  0  0  0  0  0  0  0  0
    1.4289   -4.1250    0.0000 C   0  0  0  0  0  0  0  0  0  0  0  0
    0.7145   -4.5375    0.0000 O   0  0  0  0  0  0  0  0  0  0  0  0
    0.7145   -2.8875    0.0000 C   0  0  0  0  0  0  0  0  0  0  0  0
  1  2  1  0  0  0  0
  2  3  1  0  0  0  0
  2  4  1  0  0  0  0
  2  5  1  0  0  0  0
  5  6  1  0  0  0  0
  6  7  1  0  0  0  0
  7  8  1  0  0  0  0
  7  9  1  0  0  0  0
  9 10  4  0  0  0  0
 10 11  4  0  0  0  0
 11 12  4  0  0  0  0
 12 13  1  0  0  0  0
 12 14  4  0  0  0  0
 14 15  1  0  0  0  0
 15 16  1  0  0  0  0
 14 17  4  0  0  0  0
  9 17  4  0  0  0  0
M  END

> <ChembankId>
1523

> <SMILES>
CC(C)(C)NCC(O)c1ccc(O)c(CO)c1

> <InChI>
1/C13H21NO3/c1-13(2,3)14-7-12(17)9-4-5-11(16)10(6-9)8-15/h4-6,12,14-17H,7-8H2,1-3H3

$$$$
321
  Marvin  11101114192D          

 23 26  0  0  0  0            999 V2000
    1.4289   -2.4750    0.0000 O   0  0  0  0  0  0  0  0  0  0  0  0
    1.4289   -1.6500    0.0000 C   0  0  0  0  0  0  0  0  0  0  0  0
    0.7145   -1.2375    0.0000 C   0  0  0  0  0  0  0  0  0  0  0  0
    0.7145   -0.4125    0.0000 C   0  0  0  0  0  0  0  0  0  0  0  0
    1.4289    0.0000    0.0000 O   0  0  0  0  0  0  0  0  0  0  0  0
    2.1434   -0.4125    0.0000 C   0  0  0  0  0  0  0  0  0  0  0  0
    2.8579    0.0000    0.0000 C   0  0  0  0  0  0  0  0  0  0  0  0
    3.5724   -0.4125    0.0000 C   0  0  0  0  0  0  0  0  0  0  0  0
    3.5724   -1.2375    0.0000 C   0  0  0  0  0  0  0  0  0  0  0  0
    2.8579   -1.6500    0.0000 C   0  0  0  0  0  0  0  0  0  0  0  0
    2.1434   -1.2375    0.0000 C   0  0  0  0  0  0  0  0  0  0  0  0
    2.8579    0.8250    0.0000 C   0  0  0  0  0  0  0  0  0  0  0  0
    2.1434    1.2375    0.0000 C   0  0  0  0  0  0  0  0  0  0  0  0
    2.1434    2.0625    0.0000 C   0  0  0  0  0  0  0  0  0  0  0  0
    2.8579    2.4750    0.0000 C   0  0  0  0  0  0  0  0  0  0  0  0
    3.5724    2.0625    0.0000 C   0  0  0  0  0  0  0  0  0  0  0  0
    3.5724    1.2375    0.0000 C   0  0  0  0  0  0  0  0  0  0  0  0
    0.0000    0.0000    0.0000 N   0  0  0  0  0  0  0  0  0  0  0  0
   -0.7145   -0.4125    0.0000 C   0  0  0  0  0  0  0  0  0  0  0  0
   -1.4289    0.0000    0.0000 C   0  0  0  0  0  0  0  0  0  0  0  0
   -1.4289    0.8250    0.0000 O   0  0  0  0  0  0  0  0  0  0  0  0
   -0.7145    1.2375    0.0000 C   0  0  0  0  0  0  0  0  0  0  0  0
    0.0000    0.8250    0.0000 C   0  0  0  0  0  0  0  0  0  0  0  0
  1  2  2  0  0  0  0
  2  3  4  0  0  0  0
  3  4  4  0  0  0  0
  4  5  4  0  0  0  0
  5  6  4  0  0  0  0
  6  7  4  0  0  0  0
  7  8  4  0  0  0  0
  8  9  4  0  0  0  0
  9 10  4  0  0  0  0
 10 11  4  0  0  0  0
  2 11  4  0  0  0  0
  6 11  4  0  0  0  0
  7 12  1  0  0  0  0
 12 13  4  0  0  0  0
 13 14  4  0  0  0  0
 14 15  4  0  0  0  0
 15 16  4  0  0  0  0
 16 17  4  0  0  0  0
 12 17  4  0  0  0  0
  4 18  1  0  0  0  0
 18 19  1  0  0  0  0
 19 20  1  0  0  0  0
 20 21  1  0  0  0  0
 21 22  1  0  0  0  0
 22 23  1  0  0  0  0
 18 23  1  0  0  0  0
M  END

> <ChembankId>
321

> <SMILES>
O=c1cc(oc2c(cccc12)c3ccccc3)N4CCOCC4

> <InChI>
1/C19H17NO3/c21-17-13-18(20-9-11-22-12-10-20)23-19-15(7-4-8-16(17)19)14-5-2-1-3-6-14/h1-8,13H,9-12H2

$$$$
43
  Marvin  11101114192D          

 30 33  0  0  0  0            999 V2000
   -0.7145   -0.4125    0.0000 F   0  0  0  0  0  0  0  0  0  0  0  0
   -0.7145   -1.2375    0.0000 C   0  0  0  0  0  0  0  0  0  0  0  0
    0.0000   -1.6500    0.0000 C   0  0  0  0  0  0  0  0  0  0  0  0
    0.0000   -2.4750    0.0000 C   0  0  0  0  0  0  0  0  0  0  0  0
   -0.7145   -2.8875    0.0000 C   0  0  0  0  0  0  0  0  0  0  0  0
   -1.4289   -2.4750    0.0000 C   0  0  0  0  0  0  0  0  0  0  0  0
   -1.4289   -1.6500    0.0000 C   0  0  0  0  0  0  0  0  0  0  0  0
   -0.7145   -3.7125    0.0000 C   0  0  0  0  0  0  0  0  0  0  0  0
   -1.4289   -4.1250    0.0000 N   0  0  0  0  0  0  0  0  0  0  0  0
   -1.4289   -4.9500    0.0000 C   0  0  0  0  0  0  0  0  0  0  0  0
   -2.1434   -5.3625    0.0000 C   0  0  0  0  0  0  0  0  0  0  0  0
   -2.8579   -4.9500    0.0000 N   0  0  0  0  0  0  0  0  0  0  0  0
   -3.5724   -5.3625    0.0000 C   0  0  0  0  0  0  0  0  0  0  0  0
   -4.2868   -4.9500    0.0000 C   0  0  0  0  0  0  0  0  0  0  0  0
   -5.0013   -5.3625    0.0000 C   0  0  0  0  0  0  0  0  0  0  0  0
   -5.7158   -4.9500    0.0000 C   0  0  0  0  0  0  0  0  0  0  0  0
   -6.4302   -5.3625    0.0000 C   0  0  0  0  0  0  0  0  0  0  0  0
   -7.1447   -4.9500    0.0000 C   0  0  0  0  0  0  0  0  0  0  0  0
   -7.1447   -4.1250    0.0000 C   0  0  0  0  0  0  0  0  0  0  0  0
   -6.4302   -3.7125    0.0000 C   0  0  0  0  0  0  0  0  0  0  0  0
   -5.7158   -4.1250    0.0000 C   0  0  0  0  0  0  0  0  0  0  0  0
   -2.8579   -4.1250    0.0000 C   0  0  0  0  0  0  0  0  0  0  0  0
   -2.1434   -3.7125    0.0000 C   0  0  0  0  0  0  0  0  0  0  0  0
   -0.0000   -4.1250    0.0000 C   0  0  0  0  0  0  0  0  0  0  0  0
    0.7145   -3.7125    0.0000 C   0  0  0  0  0  0  0  0  0  0  0  0
    1.4289   -4.1250    0.0000 C   0  0  0  0  0  0  0  0  0  0  0  0
    1.4289   -4.9500    0.0000 C   0  0  0  0  0  0  0  0  0  0  0  0
    2.1434   -5.3625    0.0000 F   0  0  0  0  0  0  0  0  0  0  0  0
    0.7145   -5.3625    0.0000 C   0  0  0  0  0  0  0  0  0  0  0  0
   -0.0000   -4.9500    0.0000 C   0  0  0  0  0  0  0  0  0  0  0  0
  1  2  1  0  0  0  0
  2  3  4  0  0  0  0
  3  4  4  0  0  0  0
  4  5  4  0  0  0  0
  5  6  4  0  0  0  0
  6  7  4  0  0  0  0
  2  7  4  0  0  0  0
  5  8  1  0  0  0  0
  8  9  1  0  0  0  0
  9 10  1  0  0  0  0
 10 11  1  0  0  0  0
 11 12  1  0  0  0  0
 12 13  1  0  0  0  0
 13 14  1  0  0  0  0
 14 15  2  0  0  0  0
 15 16  1  0  0  0  0
 16 17  4  0  0  0  0
 17 18  4  0  0  0  0
 18 19  4  0  0  0  0
 19 20  4  0  0  0  0
 20 21  4  0  0  0  0
 16 21  4  0  0  0  0
 12 22  1  0  0  0  0
 22 23  1  0  0  0  0
  9 23  1  0  0  0  0
  8 24  1  0  0  0  0
 24 25  4  0  0  0  0
 25 26  4  0  0  0  0
 26 27  4  0  0  0  0
 27 28  1  0  0  0  0
 27 29  4  0  0  0  0
 29 30  4  0  0  0  0
 24 30  4  0  0  0  0
M  END

> <ChembankId>
43

> <SMILES>
Fc1ccc(cc1)C(N2CCN(C/C=C/c3ccccc3)CC2)c4ccc(F)cc4

> <InChI>
1/C26H26F2N2/c27-24-12-8-22(9-13-24)26(23-10-14-25(28)15-11-23)30-19-17-29(18-20-30)16-4-7-21-5-2-1-3-6-21/h1-15,26H,16-20H2

$$$$
718
  Marvin  11101114192D          

 16 17  0  0  0  0            999 V2000
    4.0668    2.3479    0.0000 C   0  0  0  0  0  0  0  0  0  0  0  0
    3.3523    1.9354    0.0000 N   0  0  0  0  0  0  0  0  0  0  0  0
    3.3523    1.1104    0.0000 C   0  0  0  0  0  0  0  0  0  0  0  0
    4.0668    0.6979    0.0000 O   0  0  0  0  0  0  0  0  0  0  0  0
    2.6378    0.6979    0.0000 N   0  0  0  0  0  0  0  0  0  0  0  0
    2.6378   -0.1271    0.0000 C   0  0  0  0  0  0  0  0  0  0  0  0
    1.9233    1.1104    0.0000 C   0  0  0  0  0  0  0  0  0  0  0  0
    1.1387    0.8555    0.0000 N   0  0  0  0  0  0  0  0  0  0  0  0
    0.6538    1.5229    0.0000 C   0  0  0  0  0  0  0  0  0  0  0  0
    1.1387    2.1904    0.0000 N   0  0  0  0  0  0  0  0  0  0  0  0
    0.8838    2.9750    0.0000 C   0  0  0  0  0  0  0  0  0  0  0  0
    1.4358    3.5881    0.0000 C   0  0  0  0  0  0  0  0  0  0  0  0
    1.1809    4.3727    0.0000 O   0  0  0  0  0  0  0  0  0  0  0  0
    1.9233    1.9354    0.0000 C   0  0  0  0  0  0  0  0  0  0  0  0
    2.6378    2.3479    0.0000 C   0  0  0  0  0  0  0  0  0  0  0  0
    2.6378    3.1729    0.0000 O   0  0  0  0  0  0  0  0  0  0  0  0
  1  2  1  0  0  0  0
  2  3  4  0  0  0  0
  3  4  2  0  0  0  0
  3  5  4  0  0  0  0
  5  6  1  0  0  0  0
  5  7  4  0  0  0  0
  7  8  4  0  0  0  0
  8  9  4  0  0  0  0
  9 10  4  0  0  0  0
 10 11  1  0  0  0  0
 11 12  1  0  0  0  0
 12 13  1  0  0  0  0
 10 14  4  0  0  0  0
  7 14  4  0  0  0  0
 14 15  4  0  0  0  0
  2 15  4  0  0  0  0
 15 16  2  0  0  0  0
M  END

> <ChembankId>
718

> <SMILES>
Cn1c(=O)n(C)c2ncn(CCO)c2c1=O

> <InChI>
1/C9H12N4O3/c1-11-7-6(8(15)12(2)9(11)16)13(3-4-14)5-10-7/h5,14H,3-4H2,1-2H3

$$$$
1014
  Marvin  11101114192D          

 58 60  0  0  1  0            999 V2000
   -1.5433   -6.0871    0.0000 C   0  0  0  0  0  0  0  0  0  0  0  0
   -1.0561   -5.3805    0.0000 C   0  0  0  0  0  0  0  0  0  0  0  0
   -0.8227   -4.5092    0.0000 C   0  0  1  0  0  0  0  0  0  0  0  0
   -1.5453   -4.9073    0.0000 O   0  0  0  0  0  0  0  0  0  0  0  0
   -2.2513   -4.4805    0.0000 C   0  0  0  0  0  0  0  0  0  0  0  0
   -2.6465   -5.2356    0.0000 O   0  0  0  0  0  0  0  0  0  0  0  0
   -2.2348   -3.6557    0.0000 C   0  0  2  0  0  0  0  0  0  0  0  0
   -3.2344   -3.6482    0.0000 C   0  0  0  0  0  0  0  0  0  0  0  0
   -1.5122   -3.2576    0.0000 C   0  0  1  0  0  0  0  0  0  0  0  0
   -2.2310   -2.8341    0.0000 O   0  0  0  0  0  0  0  0  0  0  0  0
   -2.9408   -3.2290    0.0000 C   0  0  1  0  0  0  0  0  0  0  0  0
   -2.9574   -4.0538    0.0000 C   0  0  0  0  0  0  0  0  0  0  0  0
   -3.6800   -4.4519    0.0000 C   0  0  1  0  0  0  0  0  0  0  0  0
   -3.1625   -5.0944    0.0000 C   0  0  0  0  0  0  0  0  0  0  0  0
   -4.2228   -5.0731    0.0000 O   0  0  0  0  0  0  0  0  0  0  0  0
   -3.9563   -5.8539    0.0000 C   0  0  0  0  0  0  0  0  0  0  0  0
   -4.3860   -4.0251    0.0000 C   0  0  1  0  0  0  0  0  0  0  0  0
   -5.1086   -4.4232    0.0000 O   0  0  0  0  0  0  0  0  0  0  0  0
   -4.3695   -3.2003    0.0000 C   0  0  2  0  0  0  0  0  0  0  0  0
   -5.0756   -2.7736    0.0000 C   0  0  0  0  0  0  0  0  0  0  0  0
   -3.6469   -2.8022    0.0000 O   0  0  0  0  0  0  0  0  0  0  0  0
   -1.4956   -2.4328    0.0000 C   0  0  2  0  0  0  0  0  0  0  0  0
   -2.2102   -2.0049    0.0000 C   0  0  0  0  0  0  0  0  0  0  0  0
   -0.7730   -2.0347    0.0000 C   0  0  1  0  0  0  0  0  0  0  0  0
   -0.7376   -1.2052    0.0000 O   0  0  0  0  0  0  0  0  0  0  0  0
   -1.4626   -0.7831    0.0000 C   0  0  2  0  0  0  0  0  0  0  0  0
   -2.1852   -1.1812    0.0000 O   0  0  0  0  0  0  0  0  0  0  0  0
   -2.8912   -0.7545    0.0000 C   0  0  2  0  0  0  0  0  0  0  0  0
   -3.6138   -1.1525    0.0000 C   0  0  0  0  0  0  0  0  0  0  0  0
   -2.8747    0.0704    0.0000 C   0  0  0  0  0  0  0  0  0  0  0  0
   -2.1521    0.4685    0.0000 C   0  0  1  0  0  0  0  0  0  0  0  0
   -1.4460    0.0417    0.0000 C   0  0  1  0  0  0  0  0  0  0  0  0
   -0.7486    0.5151    0.0000 O   0  0  0  0  0  0  0  0  0  0  0  0
   -2.1355    1.2933    0.0000 N   0  0  0  0  0  0  0  0  0  0  0  0
   -1.4129    1.6914    0.0000 C   0  0  0  0  0  0  0  0  0  0  0  0
   -2.8416    1.7200    0.0000 C   0  0  0  0  0  0  0  0  0  0  0  0
   -0.0670   -2.4614    0.0000 C   0  0  2  0  0  0  0  0  0  0  0  0
    0.0024   -1.5818    0.0000 C   0  0  0  0  0  0  0  0  0  0  0  0
    0.9968   -1.9796    0.0000 O   0  0  0  0  0  0  0  0  0  0  0  0
    0.6556   -2.0633    0.0000 C   0  0  0  0  0  0  0  0  0  0  0  0
    1.3617   -2.4901    0.0000 C   0  0  1  0  0  0  0  0  0  0  0  0
    2.0571   -2.0000    0.0000 C   0  0  0  0  0  0  0  0  0  0  0  0
    1.3451   -3.3149    0.0000 C   0  0  0  0  0  0  0  0  0  0  0  0
    2.0566   -3.7481    0.0000 N   0  0  0  0  0  0  0  0  0  0  0  0
    2.8339   -3.3888    0.0000 O   0  0  0  0  0  0  0  0  0  0  0  0
    3.5773   -3.8234    0.0000 C   0  0  0  0  0  0  0  0  0  0  0  0
    4.2151   -3.3137    0.0000 O   0  0  0  0  0  0  0  0  0  0  0  0
    4.9256   -3.8104    0.0000 C   0  0  0  0  0  0  0  0  0  0  0  0
    5.7001   -3.4339    0.0000 C   0  0  0  0  0  0  0  0  0  0  0  0
    6.4267   -3.8234    0.0000 O   0  0  0  0  0  0  0  0  0  0  0  0
    7.1279   -3.3886    0.0000 C   0  0  0  0  0  0  0  0  0  0  0  0
    0.6225   -3.7130    0.0000 C   0  0  2  0  0  0  0  0  0  0  0  0
   -0.2096   -3.5632    0.0000 C   0  0  0  0  0  0  0  0  0  0  0  0
    0.6060   -4.5378    0.0000 C   0  0  1  0  0  0  0  0  0  0  0  0
    1.3101   -5.0033    0.0000 O   0  0  0  0  0  0  0  0  0  0  0  0
   -0.1166   -4.9359    0.0000 C   0  0  1  0  0  0  0  0  0  0  0  0
    0.4287   -5.6695    0.0000 C   0  0  0  0  0  0  0  0  0  0  0  0
    0.1040   -5.7941    0.0000 O   0  0  0  0  0  0  0  0  0  0  0  0
  1  2  1  0  0  0  0
  3  2  1  6  0  0  0
  3  4  1  0  0  0  0
  4  5  1  0  0  0  0
  5  6  2  0  0  0  0
  5  7  1  0  0  0  0
  7  8  1  6  0  0  0
  7  9  1  0  0  0  0
  9 10  1  6  0  0  0
 11 10  1  1  0  0  0
 11 12  1  0  0  0  0
 12 13  1  0  0  0  0
 13 14  1  6  0  0  0
 13 15  1  1  0  0  0
 15 16  1  0  0  0  0
 13 17  1  0  0  0  0
 17 18  1  1  0  0  0
 17 19  1  0  0  0  0
 19 20  1  6  0  0  0
 19 21  1  0  0  0  0
 11 21  1  0  0  0  0
  9 22  1  0  0  0  0
 22 23  1  6  0  0  0
 22 24  1  0  0  0  0
 24 25  1  1  0  0  0
 26 25  1  6  0  0  0
 26 27  1  0  0  0  0
 27 28  1  0  0  0  0
 28 29  1  6  0  0  0
 28 30  1  0  0  0  0
 30 31  1  0  0  0  0
 31 32  1  0  0  0  0
 26 32  1  0  0  0  0
 32 33  1  1  0  0  0
 31 34  1  6  0  0  0
 34 35  1  0  0  0  0
 34 36  1  0  0  0  0
 24 37  1  0  0  0  0
 37 38  1  1  0  0  0
 37 39  1  6  0  0  0
 37 40  1  0  0  0  0
 40 41  1  0  0  0  0
 41 42  1  1  0  0  0
 41 43  1  0  0  0  0
 43 44  2  0  0  0  0
 44 45  1  4  0  0  0
 45 46  1  0  0  0  0
 46 47  1  0  0  0  0
 47 48  1  0  0  0  0
 48 49  1  0  0  0  0
 49 50  1  0  0  0  0
 50 51  1  0  0  0  0
 43 52  1  0  0  0  0
 52 53  1  1  0  0  0
 52 54  1  0  0  0  0
 54 55  1  1  0  0  0
 54 56  1  0  0  0  0
  3 56  1  0  0  0  0
 56 57  1  1  0  0  0
 56 58  1  6  0  0  0
M  END

> <ChembankId>
1014

> <SMILES>
CC[C@H]1OC(=O)[C@H](C)[C@@H](O[C@H]2C[C@@](C)(OC)[C@@H](O)[C@H](C)O2)[C@H](C)[C@@H](O[C@@H]3O[C@H](C)C[C@@H]([C@H]3O)N(C)C)[C@](C)(O)C[C@@H](C)C(=NOCOCCOC)[C@H](C)[C@@H](O)[C@]1(C)O

> <InChI>
1/C41H76N2O15/c1-15-29-41(10,49)34(45)24(4)31(42-53-21-52-17-16-50-13)22(2)19-39(8,48)36(58-38-32(44)28(43(11)12)18-23(3)54-38)25(5)33(26(6)37(47)56-29)57-30-20-40(9,51-14)35(46)27(7)55-30/h22-30,32-36,38,44-46,48-49H,15-21H2,1-14H3

$$$$
424
  Marvin  11101114192D          

 29 31  0  0  1  0            999 V2000
    2.3645    3.2704    0.0000 C   0  0  0  0  0  0  0  0  0  0  0  0
    1.5395    3.2704    0.0000 C   0  0  0  0  0  0  0  0  0  0  0  0
    1.1270    3.9849    0.0000 O   0  0  0  0  0  0  0  0  0  0  0  0
    1.1270    2.5559    0.0000 O   0  0  0  0  0  0  0  0  0  0  0  0
    1.5395    1.8414    0.0000 C   0  0  1  0  0  0  0  0  0  0  0  0
    2.3645    1.8414    0.0000 C   0  0  1  0  0  0  0  0  0  0  0  0
    2.7770    2.5559    0.0000 O   0  0  0  0  0  0  0  0  0  0  0  0
    2.7770    1.1270    0.0000 C   0  0  1  0  0  0  0  0  0  0  0  0
    3.6020    1.1270    0.0000 C   0  0  0  0  0  0  0  0  0  0  0  0
    3.4587    1.9394    0.0000 C   0  0  0  0  0  0  0  0  0  0  0  0
    4.3772    1.4091    0.0000 C   0  0  0  0  0  0  0  0  0  0  0  0
    4.0145    0.4125    0.0000 C   0  0  0  0  0  0  0  0  0  0  0  0
    3.6020   -0.3020    0.0000 C   0  0  0  0  0  0  0  0  0  0  0  0
    2.7770   -0.3020    0.0000 C   0  0  2  0  0  0  0  0  0  0  0  0
    2.3645   -1.0164    0.0000 O   0  0  0  0  0  0  0  0  0  0  0  0
    2.3645    0.4125    0.0000 C   0  0  1  0  0  0  0  0  0  0  0  0
    1.9520   -0.3020    0.0000 C   0  0  0  0  0  0  0  0  0  0  0  0
    1.5395    0.4125    0.0000 C   0  0  1  0  0  0  0  0  0  0  0  0
    1.4532   -0.4080    0.0000 O   0  0  0  0  0  0  0  0  0  0  0  0
    1.1270   -0.3020    0.0000 C   0  0  0  0  0  0  0  0  0  0  0  0
    1.5395   -1.0164    0.0000 O   0  0  0  0  0  0  0  0  0  0  0  0
    0.3020   -0.3020    0.0000 C   0  0  0  0  0  0  0  0  0  0  0  0
   -0.1105    0.4125    0.0000 C   0  0  1  0  0  0  0  0  0  0  0  0
   -0.7425    0.9428    0.0000 C   0  0  0  0  0  0  0  0  0  0  0  0
    0.3020    1.1270    0.0000 O   0  0  0  0  0  0  0  0  0  0  0  0
    1.1270    1.1270    0.0000 C   0  0  2  0  0  0  0  0  0  0  0  0
    0.7145    1.8414    0.0000 C   0  0  0  0  0  0  0  0  0  0  0  0
   -0.7425   -0.1178    0.0000 C   0  0  0  0  0  0  0  0  0  0  0  0
   -1.5178    0.1644    0.0000 C   0  0  0  0  0  0  0  0  0  0  0  0
  1  2  1  0  0  0  0
  2  3  2  0  0  0  0
  2  4  1  0  0  0  0
  5  4  1  1  0  0  0
  5  6  1  0  0  0  0
  6  7  1  1  0  0  0
  6  8  1  0  0  0  0
  8  9  1  1  0  0  0
  9 10  1  0  0  0  0
  9 11  1  0  0  0  0
  9 12  1  0  0  0  0
 12 13  1  0  0  0  0
 13 14  1  0  0  0  0
 14 15  1  6  0  0  0
 14 16  1  0  0  0  0
  8 16  1  0  0  0  0
 16 17  1  1  0  0  0
 16 18  1  0  0  0  0
 18 19  1  6  0  0  0
 18 20  1  0  0  0  0
 20 21  2  0  0  0  0
 20 22  1  0  0  0  0
 22 23  1  0  0  0  0
 23 24  1  1  0  0  0
 23 25  1  0  0  0  0
 25 26  1  0  0  0  0
  5 26  1  0  0  0  0
 18 26  1  0  0  0  0
 26 27  1  1  0  0  0
 23 28  1  6  0  0  0
 28 29  2  0  0  0  0
M  END

> <ChembankId>
424

> <SMILES>
CC(=O)O[C@H]1[C@@H](O)[C@H]2C(C)(C)CC[C@H](O)[C@]2(C)[C@@]3(O)C(=O)C[C@@](C)(O[C@]13C)C=C

> <InChI>
1/C22H34O7/c1-8-19(5)11-14(25)22(27)20(6)13(24)9-10-18(3,4)16(20)15(26)17(28-12(2)23)21(22,7)29-19/h8,13,15-17,24,26-27H,1,9-11H2,2-7H3

$$$$
936
  Marvin  11101114192D          

 26 28  0  0  0  0            999 V2000
    3.8743    4.0145    0.0000 O   0  0  0  0  0  0  0  0  0  0  0  0
    4.2868    3.3000    0.0000 C   0  0  0  0  0  0  0  0  0  0  0  0
    5.1118    3.3000    0.0000 C   0  0  0  0  0  0  0  0  0  0  0  0
    5.5243    4.0145    0.0000 O   0  0  0  0  0  0  0  0  0  0  0  0
    5.5243    2.5855    0.0000 C   0  0  0  0  0  0  0  0  0  0  0  0
    6.3493    2.5855    0.0000 O   0  0  0  0  0  0  0  0  0  0  0  0
    6.7618    3.3000    0.0000 C   0  0  0  0  0  0  0  0  0  0  0  0
    6.3493    4.0145    0.0000 O   0  0  0  0  0  0  0  0  0  0  0  0
    7.5868    3.3000    0.0000 C   0  0  0  0  0  0  0  0  0  0  0  0
    7.9993    4.0145    0.0000 C   0  0  0  0  0  0  0  0  0  0  0  0
    8.8243    4.0145    0.0000 C   0  0  0  0  0  0  0  0  0  0  0  0
    9.2368    3.3000    0.0000 C   0  0  0  0  0  0  0  0  0  0  0  0
    8.8243    2.5855    0.0000 C   0  0  0  0  0  0  0  0  0  0  0  0
    7.9993    2.5855    0.0000 C   0  0  0  0  0  0  0  0  0  0  0  0
    7.5868    1.8711    0.0000 N   0  0  0  0  0  0  0  0  0  0  0  0
    7.9993    1.1566    0.0000 C   0  0  0  0  0  0  0  0  0  0  0  0
    8.8243    1.1566    0.0000 C   0  0  0  0  0  0  0  0  0  0  0  0
    9.2368    0.4421    0.0000 C   0  0  0  0  0  0  0  0  0  0  0  0
    8.8243   -0.2724    0.0000 N   0  0  0  0  0  0  0  0  0  0  0  0
    7.9993   -0.2724    0.0000 C   0  0  0  0  0  0  0  0  0  0  0  0
    7.5868   -0.9868    0.0000 C   0  0  0  0  0  0  0  0  0  0  0  0
    6.7618   -0.9868    0.0000 C   0  0  0  0  0  0  0  0  0  0  0  0
    6.3493   -1.7013    0.0000 Cl  0  0  0  0  0  0  0  0  0  0  0  0
    6.3493   -0.2724    0.0000 C   0  0  0  0  0  0  0  0  0  0  0  0
    6.7618    0.4421    0.0000 C   0  0  0  0  0  0  0  0  0  0  0  0
    7.5868    0.4421    0.0000 C   0  0  0  0  0  0  0  0  0  0  0  0
  1  2  1  0  0  0  0
  2  3  1  0  0  0  0
  3  4  1  0  0  0  0
  3  5  1  0  0  0  0
  5  6  1  0  0  0  0
  6  7  1  0  0  0  0
  7  8  2  0  0  0  0
  7  9  1  0  0  0  0
  9 10  4  0  0  0  0
 10 11  4  0  0  0  0
 11 12  4  0  0  0  0
 12 13  4  0  0  0  0
 13 14  4  0  0  0  0
  9 14  4  0  0  0  0
 14 15  1  0  0  0  0
 15 16  1  0  0  0  0
 16 17  4  0  0  0  0
 17 18  4  0  0  0  0
 18 19  4  0  0  0  0
 19 20  4  0  0  0  0
 20 21  4  0  0  0  0
 21 22  4  0  0  0  0
 22 23  1  0  0  0  0
 22 24  4  0  0  0  0
 24 25  4  0  0  0  0
 25 26  4  0  0  0  0
 16 26  4  0  0  0  0
 20 26  4  0  0  0  0
M  END

> <ChembankId>
936

> <SMILES>
OCC(O)COC(=O)c1ccccc1Nc2ccnc3cc(Cl)ccc23

> <InChI>
1/C19H17ClN2O4/c20-12-5-6-14-17(7-8-21-18(14)9-12)22-16-4-2-1-3-15(16)19(25)26-11-13(24)10-23/h1-9,13,23-24H,10-11H2,(H,21,22)

$$$$
1149
  Marvin  11101114192D          

 18 18  0  0  1  0            999 V2000
   -1.4289   -0.8250    0.0000 C   0  0  0  0  0  0  0  0  0  0  0  0
   -1.4289   -1.6500    0.0000 N   0  0  0  0  0  0  0  0  0  0  0  0
   -2.1434   -2.0625    0.0000 N   0  0  0  0  0  0  0  0  0  0  0  0
   -2.8579   -1.6500    0.0000 O   0  0  0  0  0  0  0  0  0  0  0  0
   -0.7145   -2.0625    0.0000 C   0  0  0  0  0  0  0  0  0  0  0  0
   -0.7145   -2.8875    0.0000 O   0  0  0  0  0  0  0  0  0  0  0  0
    0.0000   -1.6500    0.0000 N   0  0  0  0  0  0  0  0  0  0  0  0
    0.7145   -2.0625    0.0000 C   0  0  1  0  0  0  0  0  0  0  0  0
    1.4289   -1.6500    0.0000 C   0  0  1  0  0  0  0  0  0  0  0  0
    1.4289   -0.8250    0.0000 O   0  0  0  0  0  0  0  0  0  0  0  0
    2.1434   -2.0625    0.0000 O   0  0  0  0  0  0  0  0  0  0  0  0
    2.1434   -2.8875    0.0000 C   0  0  2  0  0  0  0  0  0  0  0  0
    2.8579   -3.3000    0.0000 C   0  0  0  0  0  0  0  0  0  0  0  0
    3.5724   -2.8875    0.0000 O   0  0  0  0  0  0  0  0  0  0  0  0
    1.4289   -3.3000    0.0000 C   0  0  1  0  0  0  0  0  0  0  0  0
    1.4289   -4.1250    0.0000 O   0  0  0  0  0  0  0  0  0  0  0  0
    0.7145   -2.8875    0.0000 C   0  0  2  0  0  0  0  0  0  0  0  0
    0.0000   -3.3000    0.0000 O   0  0  0  0  0  0  0  0  0  0  0  0
  1  2  1  0  0  0  0
  2  3  1  0  0  0  0
  3  4  2  0  0  0  0
  2  5  1  0  0  0  0
  5  6  2  0  0  0  0
  5  7  1  0  0  0  0
  8  7  1  1  0  0  0
  8  9  1  0  0  0  0
  9 10  1  1  0  0  0
  9 11  1  0  0  0  0
 11 12  1  0  0  0  0
 12 13  1  6  0  0  0
 13 14  1  0  0  0  0
 12 15  1  0  0  0  0
 15 16  1  1  0  0  0
 15 17  1  0  0  0  0
  8 17  1  0  0  0  0
 17 18  1  6  0  0  0
M  END

> <ChembankId>
1149

> <SMILES>
CN(N=O)C(=O)N[C@H]1[C@@H](O)O[C@H](CO)[C@@H](O)[C@@H]1O

> <InChI>
1/C8H15N3O7/c1-11(10-17)8(16)9-4-6(14)5(13)3(2-12)18-7(4)15/h3-7,12-15H,2H2,1H3,(H,9,16)

$$$$
1531
  Marvin  11101114192D          

 16 18  0  0  0  0            999 V2000
    0.8838   -2.1500    0.0000 O   0  0  0  0  0  0  0  0  0  0  0  0
    1.1387   -1.3654    0.0000 C   0  0  0  0  0  0  0  0  0  0  0  0
    0.6538   -0.6979    0.0000 N   0  0  0  0  0  0  0  0  0  0  0  0
    1.1387   -0.0305    0.0000 Se  0  0  0  0  0  0  0  0  0  0  0  0
    1.9233   -0.2854    0.0000 C   0  0  0  0  0  0  0  0  0  0  0  0
    2.6378    0.1271    0.0000 C   0  0  0  0  0  0  0  0  0  0  0  0
    3.3523   -0.2854    0.0000 C   0  0  0  0  0  0  0  0  0  0  0  0
    3.3523   -1.1104    0.0000 C   0  0  0  0  0  0  0  0  0  0  0  0
    2.6378   -1.5229    0.0000 C   0  0  0  0  0  0  0  0  0  0  0  0
    1.9233   -1.1104    0.0000 C   0  0  0  0  0  0  0  0  0  0  0  0
   -0.1712   -0.6979    0.0000 C   0  0  0  0  0  0  0  0  0  0  0  0
   -0.5837   -1.4124    0.0000 C   0  0  0  0  0  0  0  0  0  0  0  0
   -1.4087   -1.4124    0.0000 C   0  0  0  0  0  0  0  0  0  0  0  0
   -1.8212   -0.6979    0.0000 C   0  0  0  0  0  0  0  0  0  0  0  0
   -1.4087    0.0165    0.0000 C   0  0  0  0  0  0  0  0  0  0  0  0
   -0.5837    0.0165    0.0000 C   0  0  0  0  0  0  0  0  0  0  0  0
  1  2  2  0  0  0  0
  2  3  4  0  0  0  0
  3  4  4  0  0  0  0
  4  5  4  0  0  0  0
  5  6  4  0  0  0  0
  6  7  4  0  0  0  0
  7  8  4  0  0  0  0
  8  9  4  0  0  0  0
  9 10  4  0  0  0  0
  2 10  4  0  0  0  0
  5 10  4  0  0  0  0
  3 11  1  0  0  0  0
 11 12  4  0  0  0  0
 12 13  4  0  0  0  0
 13 14  4  0  0  0  0
 14 15  4  0  0  0  0
 15 16  4  0  0  0  0
 11 16  4  0  0  0  0
M  END

> <ChembankId>
1531

> <SMILES>
O=c1n([se]c2ccccc12)c3ccccc3

> <InChI>
1/C13H9NOSe/c15-13-11-8-4-5-9-12(11)16-14(13)10-6-2-1-3-7-10/h1-9H

$$$$
440
  Marvin  11101114192D          

 21 23  0  0  0  0            999 V2000
   -1.8212   -2.1269    0.0000 C   0  0  0  0  0  0  0  0  0  0  0  0
   -1.4087   -1.4124    0.0000 O   0  0  0  0  0  0  0  0  0  0  0  0
   -0.5837   -1.4124    0.0000 C   0  0  0  0  0  0  0  0  0  0  0  0
   -0.1712   -2.1269    0.0000 O   0  0  0  0  0  0  0  0  0  0  0  0
   -0.1712   -0.6979    0.0000 N   0  0  0  0  0  0  0  0  0  0  0  0
    0.6538   -0.6979    0.0000 C   0  0  0  0  0  0  0  0  0  0  0  0
    1.1387   -0.0305    0.0000 N   0  0  0  0  0  0  0  0  0  0  0  0
    1.9233   -0.2854    0.0000 C   0  0  0  0  0  0  0  0  0  0  0  0
    2.6378    0.1271    0.0000 C   0  0  0  0  0  0  0  0  0  0  0  0
    3.3523   -0.2854    0.0000 C   0  0  0  0  0  0  0  0  0  0  0  0
    3.3523   -1.1104    0.0000 C   0  0  0  0  0  0  0  0  0  0  0  0
    2.6378   -1.5229    0.0000 C   0  0  0  0  0  0  0  0  0  0  0  0
    1.9233   -1.1104    0.0000 C   0  0  0  0  0  0  0  0  0  0  0  0
    1.1387   -1.3654    0.0000 N   0  0  0  0  0  0  0  0  0  0  0  0
    4.0668    0.1271    0.0000 C   0  0  0  0  0  0  0  0  0  0  0  0
    4.0668    0.9521    0.0000 O   0  0  0  0  0  0  0  0  0  0  0  0
    4.7812   -0.2854    0.0000 C   0  0  0  0  0  0  0  0  0  0  0  0
    5.5349    0.0501    0.0000 C   0  0  0  0  0  0  0  0  0  0  0  0
    6.0869   -0.5630    0.0000 C   0  0  0  0  0  0  0  0  0  0  0  0
    5.6744   -1.2775    0.0000 C   0  0  0  0  0  0  0  0  0  0  0  0
    4.8675   -1.1059    0.0000 S   0  0  0  0  0  0  0  0  0  0  0  0
  1  2  1  0  0  0  0
  2  3  1  0  0  0  0
  3  4  2  0  0  0  0
  3  5  1  0  0  0  0
  5  6  1  0  0  0  0
  6  7  4  0  0  0  0
  7  8  4  0  0  0  0
  8  9  4  0  0  0  0
  9 10  4  0  0  0  0
 10 11  4  0  0  0  0
 11 12  4  0  0  0  0
 12 13  4  0  0  0  0
  8 13  4  0  0  0  0
 13 14  4  0  0  0  0
  6 14  4  0  0  0  0
 10 15  1  0  0  0  0
 15 16  2  0  0  0  0
 15 17  1  0  0  0  0
 17 18  4  0  0  0  0
 18 19  4  0  0  0  0
 19 20  4  0  0  0  0
 20 21  4  0  0  0  0
 17 21  4  0  0  0  0
M  STY  1   1 DAT
M  SAL   1  1  14
M  SDT   1 MRV_IMPLICIT_H                                        
M  SDD   1     0.0000    0.0000    DR    ALL  0       0  
M  SED   1 IMPL_H1
M  END

> <ChembankId>
440

> <SMILES>
COC(=O)Nc1nc2cc(ccc2[nH]1)C(=O)c3cccs3

> <InChI>
1/C14H11N3O3S/c1-20-14(19)17-13-15-9-5-4-8(7-10(9)16-13)12(18)11-3-2-6-21-11/h2-7H,1H3,(H2,15,16,17,19)

$$$$
438
  Marvin  11101114192D          

 20 21  0  0  0  0            999 V2000
    2.1434    1.2375    0.0000 C   0  0  0  0  0  0  0  0  0  0  0  0
    1.4289    0.8250    0.0000 C   0  0  0  0  0  0  0  0  0  0  0  0
    1.4289   -0.0000    0.0000 O   0  0  0  0  0  0  0  0  0  0  0  0
    0.7145   -0.4125    0.0000 C   0  0  0  0  0  0  0  0  0  0  0  0
    0.0000    0.0000    0.0000 O   0  0  0  0  0  0  0  0  0  0  0  0
    0.7145   -1.2375    0.0000 C   0  0  0  0  0  0  0  0  0  0  0  0
    1.4289   -1.6500    0.0000 C   0  0  0  0  0  0  0  0  0  0  0  0
    2.1434   -1.2375    0.0000 C   0  0  0  0  0  0  0  0  0  0  0  0
    1.4289   -2.4750    0.0000 N   0  0  0  0  0  0  0  0  0  0  0  0
    0.7145   -2.8875    0.0000 C   0  0  0  0  0  0  0  0  0  0  0  0
    0.7145   -3.7125    0.0000 S   0  0  0  0  0  0  0  0  0  0  0  0
    0.0000   -2.4750    0.0000 N   0  0  0  0  0  0  0  0  0  0  0  0
    0.0000   -1.6500    0.0000 C   0  0  0  0  0  0  0  0  0  0  0  0
   -0.7145   -1.2375    0.0000 C   0  0  0  0  0  0  0  0  0  0  0  0
   -1.4289   -1.6500    0.0000 C   0  0  0  0  0  0  0  0  0  0  0  0
   -2.1434   -1.2375    0.0000 C   0  0  0  0  0  0  0  0  0  0  0  0
   -2.1434   -0.4125    0.0000 C   0  0  0  0  0  0  0  0  0  0  0  0
   -1.4289   -0.0000    0.0000 C   0  0  0  0  0  0  0  0  0  0  0  0
   -1.4289    0.8250    0.0000 O   0  0  0  0  0  0  0  0  0  0  0  0
   -0.7145   -0.4125    0.0000 C   0  0  0  0  0  0  0  0  0  0  0  0
  1  2  1  0  0  0  0
  2  3  1  0  0  0  0
  3  4  1  0  0  0  0
  4  5  2  0  0  0  0
  4  6  1  0  0  0  0
  6  7  2  0  0  0  0
  7  8  1  0  0  0  0
  7  9  1  0  0  0  0
  9 10  1  0  0  0  0
 10 11  2  0  0  0  0
 10 12  1  0  0  0  0
 12 13  1  0  0  0  0
  6 13  1  0  0  0  0
 13 14  1  0  0  0  0
 14 15  4  0  0  0  0
 15 16  4  0  0  0  0
 16 17  4  0  0  0  0
 17 18  4  0  0  0  0
 18 19  1  0  0  0  0
 18 20  4  0  0  0  0
 14 20  4  0  0  0  0
M  END

> <ChembankId>
438

> <SMILES>
CCOC(=O)C1=C(C)NC(=S)NC1c2cccc(O)c2

> <InChI>
1/C14H16N2O3S/c1-3-19-13(18)11-8(2)15-14(20)16-12(11)9-5-4-6-10(17)7-9/h4-7,12,17H,3H2,1-2H3,(H2,15,16,20)

$$$$
1076
  Marvin  11101114192D          

 15 16  0  0  0  0            999 V2000
    2.1434   -0.4125    0.0000 C   0  0  0  0  0  0  0  0  0  0  0  0
    2.1434   -1.2375    0.0000 C   0  0  0  0  0  0  0  0  0  0  0  0
    2.8579   -1.6500    0.0000 C   0  0  0  0  0  0  0  0  0  0  0  0
    2.8579   -2.4750    0.0000 C   0  0  0  0  0  0  0  0  0  0  0  0
    2.1434   -2.8875    0.0000 C   0  0  0  0  0  0  0  0  0  0  0  0
    1.4289   -2.4750    0.0000 C   0  0  0  0  0  0  0  0  0  0  0  0
    0.7145   -2.8875    0.0000 C   0  0  0  0  0  0  0  0  0  0  0  0
    1.4289   -1.6500    0.0000 C   0  0  0  0  0  0  0  0  0  0  0  0
    0.7145   -1.2375    0.0000 N   0  0  0  0  0  0  0  0  0  0  0  0
    0.7145   -0.4125    0.0000 C   0  0  0  0  0  0  0  0  0  0  0  0
    0.0000    0.0000    0.0000 N   0  0  0  0  0  0  0  0  0  0  0  0
    0.0000    0.8250    0.0000 C   0  0  0  0  0  0  0  0  0  0  0  0
    0.7145    1.2375    0.0000 C   0  0  0  0  0  0  0  0  0  0  0  0
    1.4289    0.8250    0.0000 C   0  0  0  0  0  0  0  0  0  0  0  0
    1.4289    0.0000    0.0000 S   0  0  0  0  0  0  0  0  0  0  0  0
  1  2  1  0  0  0  0
  2  3  4  0  0  0  0
  3  4  4  0  0  0  0
  4  5  4  0  0  0  0
  5  6  4  0  0  0  0
  6  7  1  0  0  0  0
  6  8  4  0  0  0  0
  2  8  4  0  0  0  0
  8  9  1  0  0  0  0
  9 10  1  0  0  0  0
 10 11  2  0  0  0  0
 11 12  1  0  0  0  0
 12 13  1  0  0  0  0
 13 14  1  0  0  0  0
 14 15  1  0  0  0  0
 10 15  1  0  0  0  0
M  END

> <ChembankId>
1076

> <SMILES>
Cc1cccc(C)c1NC2=NCCCS2

> <InChI>
1/C12H16N2S/c1-9-5-3-6-10(2)11(9)14-12-13-7-4-8-15-12/h3,5-6H,4,7-8H2,1-2H3,(H,13,14)

$$$$
347
  Marvin  11101114192D          

 23 25  0  0  0  0            999 V2000
    0.0000   -1.6500    0.0000 C   0  0  0  0  0  0  0  0  0  0  0  0
    0.7145   -1.2375    0.0000 N   0  0  0  0  0  0  0  0  0  0  0  0
    0.7145   -0.4125    0.0000 C   0  0  0  0  0  0  0  0  0  0  0  0
    1.4289    0.0000    0.0000 C   0  0  0  0  0  0  0  0  0  0  0  0
    1.4289    0.8250    0.0000 O   0  0  0  0  0  0  0  0  0  0  0  0
    2.1434   -0.4125    0.0000 C   0  0  0  0  0  0  0  0  0  0  0  0
    2.8579    0.0000    0.0000 C   0  0  0  0  0  0  0  0  0  0  0  0
    3.5724   -0.4125    0.0000 C   0  0  0  0  0  0  0  0  0  0  0  0
    3.5724   -1.2375    0.0000 C   0  0  0  0  0  0  0  0  0  0  0  0
    2.8579   -1.6500    0.0000 C   0  0  0  0  0  0  0  0  0  0  0  0
    2.1434   -1.2375    0.0000 C   0  0  0  0  0  0  0  0  0  0  0  0
    1.4289   -1.6500    0.0000 S   0  0  0  0  0  0  0  0  0  0  0  0
    1.8163   -2.3784    0.0000 O   0  0  0  0  0  0  0  0  0  0  0  0
    1.0416   -2.3784    0.0000 O   0  0  0  0  0  0  0  0  0  0  0  0
    0.0000    0.0000    0.0000 C   0  0  0  0  0  0  0  0  0  0  0  0
    0.0000    0.8250    0.0000 O   0  0  0  0  0  0  0  0  0  0  0  0
   -0.7145   -0.4125    0.0000 N   0  0  0  0  0  0  0  0  0  0  0  0
   -1.4289   -0.0000    0.0000 C   0  0  0  0  0  0  0  0  0  0  0  0
   -2.1434   -0.4125    0.0000 C   0  0  0  0  0  0  0  0  0  0  0  0
   -2.8579   -0.0000    0.0000 C   0  0  0  0  0  0  0  0  0  0  0  0
   -2.8579    0.8250    0.0000 C   0  0  0  0  0  0  0  0  0  0  0  0
   -2.1434    1.2375    0.0000 C   0  0  0  0  0  0  0  0  0  0  0  0
   -1.4289    0.8250    0.0000 N   0  0  0  0  0  0  0  0  0  0  0  0
  1  2  1  0  0  0  0
  2  3  1  0  0  0  0
  3  4  2  0  0  0  0
  4  5  1  0  0  0  0
  4  6  1  0  0  0  0
  6  7  4  0  0  0  0
  7  8  4  0  0  0  0
  8  9  4  0  0  0  0
  9 10  4  0  0  0  0
 10 11  4  0  0  0  0
  6 11  4  0  0  0  0
 11 12  1  0  0  0  0
  2 12  1  0  0  0  0
 12 13  2  0  0  0  0
 12 14  2  0  0  0  0
  3 15  1  0  0  0  0
 15 16  2  0  0  0  0
 15 17  1  0  0  0  0
 17 18  1  0  0  0  0
 18 19  4  0  0  0  0
 19 20  4  0  0  0  0
 20 21  4  0  0  0  0
 21 22  4  0  0  0  0
 22 23  4  0  0  0  0
 18 23  4  0  0  0  0
M  END

> <ChembankId>
347

> <SMILES>
CN1C(=C(O)c2ccccc2S1(=O)=O)C(=O)Nc3ccccn3

> <InChI>
1/C15H13N3O4S/c1-18-13(15(20)17-12-8-4-5-9-16-12)14(19)10-6-2-3-7-11(10)23(18,21)22/h2-9,19H,1H3,(H,16,17,20)

$$$$
683
  Marvin  11101114192D          

 12 12  0  0  0  0            999 V2000
    2.0198    0.8843    0.0000 C   0  0  0  0  0  0  0  0  0  0  0  0
    1.2352    0.6294    0.0000 C   0  0  0  0  0  0  0  0  0  0  0  0
    0.9803   -0.1553    0.0000 N   0  0  0  0  0  0  0  0  0  0  0  0
    0.1553   -0.1553    0.0000 C   0  0  0  0  0  0  0  0  0  0  0  0
   -0.0997    0.6294    0.0000 C   0  0  0  0  0  0  0  0  0  0  0  0
   -0.8843    0.8843    0.0000 N   0  3  0  0  0  0  0  0  0  0  0  0
   -1.4974    0.3323    0.0000 O   0  0  0  0  0  0  0  0  0  0  0  0
   -1.0558    1.6913    0.0000 O   0  5  0  0  0  0  0  0  0  0  0  0
    0.5678    1.1143    0.0000 N   0  0  0  0  0  0  0  0  0  0  0  0
    0.5678    1.9393    0.0000 C   0  0  0  0  0  0  0  0  0  0  0  0
    1.2822    2.3518    0.0000 C   0  0  0  0  0  0  0  0  0  0  0  0
    1.2822    3.1768    0.0000 O   0  0  0  0  0  0  0  0  0  0  0  0
  1  2  1  0  0  0  0
  2  3  4  0  0  0  0
  3  4  4  0  0  0  0
  4  5  4  0  0  0  0
  5  6  1  0  0  0  0
  6  7  2  0  0  0  0
  6  8  1  0  0  0  0
  5  9  4  0  0  0  0
  2  9  4  0  0  0  0
  9 10  1  0  0  0  0
 10 11  1  0  0  0  0
 11 12  1  0  0  0  0
M  CHG  2   6   1   8  -1
M  END

> <ChembankId>
683

> <SMILES>
Cc1ncc([N+](=O)[O-])n1CCO

> <InChI>
1/C6H9N3O3/c1-5-7-4-6(9(11)12)8(5)2-3-10/h4,10H,2-3H2,1H3

$$$$
445
  Marvin  11101114192D          

 10 10  0  0  0  0            999 V2000
    2.8579   -0.0000    0.0000 N   0  0  0  0  0  0  0  0  0  0  0  0
    2.1434   -0.4125    0.0000 C   0  0  0  0  0  0  0  0  0  0  0  0
    2.1434   -1.2375    0.0000 O   0  0  0  0  0  0  0  0  0  0  0  0
    1.4289   -0.0000    0.0000 C   0  0  0  0  0  0  0  0  0  0  0  0
    0.7145   -0.4125    0.0000 C   0  0  0  0  0  0  0  0  0  0  0  0
    0.0000   -0.0000    0.0000 C   0  0  0  0  0  0  0  0  0  0  0  0
    0.0000    0.8250    0.0000 C   0  0  0  0  0  0  0  0  0  0  0  0
    0.7145    1.2375    0.0000 C   0  0  0  0  0  0  0  0  0  0  0  0
    0.7145    2.0625    0.0000 N   0  0  0  0  0  0  0  0  0  0  0  0
    1.4289    0.8250    0.0000 C   0  0  0  0  0  0  0  0  0  0  0  0
  1  2  1  0  0  0  0
  2  3  2  0  0  0  0
  2  4  1  0  0  0  0
  4  5  4  0  0  0  0
  5  6  4  0  0  0  0
  6  7  4  0  0  0  0
  7  8  4  0  0  0  0
  8  9  1  0  0  0  0
  8 10  4  0  0  0  0
  4 10  4  0  0  0  0
M  END

> <ChembankId>
445

> <SMILES>
NC(=O)c1cccc(N)c1

> <InChI>
1/C7H8N2O/c8-6-3-1-2-5(4-6)7(9)10/h1-4H,8H2,(H2,9,10)

$$$$
359
  Marvin  11101114192D          

 28 29  0  0  0  0            999 V2000
   -1.4289    1.6500    0.0000 F   0  0  0  0  0  0  0  0  0  0  0  0
   -1.4289    0.8250    0.0000 C   0  0  0  0  0  0  0  0  0  0  0  0
   -2.2539    0.8250    0.0000 F   0  0  0  0  0  0  0  0  0  0  0  0
   -0.6039    0.8250    0.0000 F   0  0  0  0  0  0  0  0  0  0  0  0
   -1.4289   -0.0000    0.0000 C   0  0  0  0  0  0  0  0  0  0  0  0
   -2.1434   -0.4125    0.0000 O   0  0  0  0  0  0  0  0  0  0  0  0
   -2.1434   -1.2375    0.0000 C   0  0  0  0  0  0  0  0  0  0  0  0
   -1.4289   -1.6500    0.0000 C   0  0  0  0  0  0  0  0  0  0  0  0
   -1.4289   -2.4750    0.0000 C   0  0  0  0  0  0  0  0  0  0  0  0
   -2.1434   -2.8875    0.0000 C   0  0  0  0  0  0  0  0  0  0  0  0
   -2.1434   -3.7125    0.0000 O   0  0  0  0  0  0  0  0  0  0  0  0
   -2.8579   -4.1250    0.0000 C   0  0  0  0  0  0  0  0  0  0  0  0
   -2.8579   -4.9500    0.0000 C   0  0  0  0  0  0  0  0  0  0  0  0
   -3.6829   -4.9500    0.0000 F   0  0  0  0  0  0  0  0  0  0  0  0
   -2.0329   -4.9500    0.0000 F   0  0  0  0  0  0  0  0  0  0  0  0
   -2.8579   -5.7750    0.0000 F   0  0  0  0  0  0  0  0  0  0  0  0
   -2.8579   -2.4750    0.0000 C   0  0  0  0  0  0  0  0  0  0  0  0
   -2.8579   -1.6500    0.0000 C   0  0  0  0  0  0  0  0  0  0  0  0
   -3.5724   -2.8875    0.0000 C   0  0  0  0  0  0  0  0  0  0  0  0
   -3.5724   -3.7125    0.0000 O   0  0  0  0  0  0  0  0  0  0  0  0
   -4.2868   -2.4750    0.0000 N   0  0  0  0  0  0  0  0  0  0  0  0
   -5.0013   -2.8875    0.0000 C   0  0  0  0  0  0  0  0  0  0  0  0
   -5.0013   -3.7125    0.0000 C   0  0  0  0  0  0  0  0  0  0  0  0
   -4.2868   -4.1250    0.0000 C   0  0  0  0  0  0  0  0  0  0  0  0
   -4.2868   -4.9500    0.0000 C   0  0  0  0  0  0  0  0  0  0  0  0
   -5.0013   -5.3625    0.0000 C   0  0  0  0  0  0  0  0  0  0  0  0
   -5.7158   -4.9500    0.0000 C   0  0  0  0  0  0  0  0  0  0  0  0
   -5.7158   -4.1250    0.0000 N   0  0  0  0  0  0  0  0  0  0  0  0
  1  2  1  0  0  0  0
  2  3  1  0  0  0  0
  2  4  1  0  0  0  0
  2  5  1  0  0  0  0
  5  6  1  0  0  0  0
  6  7  1  0  0  0  0
  7  8  4  0  0  0  0
  8  9  4  0  0  0  0
  9 10  4  0  0  0  0
 10 11  1  0  0  0  0
 11 12  1  0  0  0  0
 12 13  1  0  0  0  0
 13 14  1  0  0  0  0
 13 15  1  0  0  0  0
 13 16  1  0  0  0  0
 10 17  4  0  0  0  0
 17 18  4  0  0  0  0
  7 18  4  0  0  0  0
 17 19  1  0  0  0  0
 19 20  2  0  0  0  0
 19 21  1  0  0  0  0
 21 22  1  0  0  0  0
 22 23  1  0  0  0  0
 23 24  1  0  0  0  0
 24 25  1  0  0  0  0
 25 26  1  0  0  0  0
 26 27  1  0  0  0  0
 27 28  1  0  0  0  0
 23 28  1  0  0  0  0
M  END

> <ChembankId>
359

> <SMILES>
FC(F)(F)COc1ccc(OCC(F)(F)F)c(c1)C(=O)NCC2CCCCN2

> <InChI>
1/C17H20F6N2O3/c18-16(19,20)9-27-12-4-5-14(28-10-17(21,22)23)13(7-12)15(26)25-8-11-3-1-2-6-24-11/h4-5,7,11,24H,1-3,6,8-10H2,(H,25,26)

$$$$
1329
  Marvin  11101114192D          

 23 24  0  0  0  0            999 V2000
    0.7145   -0.4125    0.0000 N   0  0  0  0  0  0  0  0  0  0  0  0
    1.4289    0.0000    0.0000 C   0  0  0  0  0  0  0  0  0  0  0  0
    2.1434   -0.4125    0.0000 C   0  0  0  0  0  0  0  0  0  0  0  0
    2.1434   -1.2375    0.0000 C   0  0  0  0  0  0  0  0  0  0  0  0
    2.8579   -1.6500    0.0000 C   0  0  0  0  0  0  0  0  0  0  0  0
    2.8579   -2.4750    0.0000 C   0  0  0  0  0  0  0  0  0  0  0  0
    3.5724   -2.8875    0.0000 I   0  0  0  0  0  0  0  0  0  0  0  0
    2.1434   -2.8875    0.0000 C   0  0  0  0  0  0  0  0  0  0  0  0
    2.1434   -3.7125    0.0000 O   0  0  0  0  0  0  0  0  0  0  0  0
    1.4289   -4.1250    0.0000 C   0  0  0  0  0  0  0  0  0  0  0  0
    1.4289   -4.9500    0.0000 C   0  0  0  0  0  0  0  0  0  0  0  0
    0.7145   -5.3625    0.0000 C   0  0  0  0  0  0  0  0  0  0  0  0
   -0.0000   -4.9500    0.0000 C   0  0  0  0  0  0  0  0  0  0  0  0
   -0.7145   -5.3625    0.0000 O   0  0  0  0  0  0  0  0  0  0  0  0
   -0.0000   -4.1250    0.0000 C   0  0  0  0  0  0  0  0  0  0  0  0
   -0.7145   -3.7125    0.0000 I   0  0  0  0  0  0  0  0  0  0  0  0
    0.7145   -3.7125    0.0000 C   0  0  0  0  0  0  0  0  0  0  0  0
    1.4289   -2.4750    0.0000 C   0  0  0  0  0  0  0  0  0  0  0  0
    0.7145   -2.8875    0.0000 I   0  0  0  0  0  0  0  0  0  0  0  0
    1.4289   -1.6500    0.0000 C   0  0  0  0  0  0  0  0  0  0  0  0
    1.4289    0.8250    0.0000 C   0  0  0  0  0  0  0  0  0  0  0  0
    0.7145    1.2375    0.0000 O   0  0  0  0  0  0  0  0  0  0  0  0
    2.1434    1.2375    0.0000 O   0  0  0  0  0  0  0  0  0  0  0  0
  1  2  1  0  0  0  0
  2  3  1  0  0  0  0
  3  4  1  0  0  0  0
  4  5  4  0  0  0  0
  5  6  4  0  0  0  0
  6  7  1  0  0  0  0
  6  8  4  0  0  0  0
  8  9  1  0  0  0  0
  9 10  1  0  0  0  0
 10 11  4  0  0  0  0
 11 12  4  0  0  0  0
 12 13  4  0  0  0  0
 13 14  1  0  0  0  0
 13 15  4  0  0  0  0
 15 16  1  0  0  0  0
 15 17  4  0  0  0  0
 10 17  4  0  0  0  0
  8 18  4  0  0  0  0
 18 19  1  0  0  0  0
 18 20  4  0  0  0  0
  4 20  4  0  0  0  0
  2 21  1  0  0  0  0
 21 22  2  0  0  0  0
 21 23  1  0  0  0  0
M  END

> <ChembankId>
1329

> <SMILES>
NC(Cc1cc(I)c(Oc2ccc(O)c(I)c2)c(I)c1)C(=O)O

> <InChI>
1/C15H12I3NO4/c16-9-6-8(1-2-13(9)20)23-14-10(17)3-7(4-11(14)18)5-12(19)15(21)22/h1-4,6,12,20H,5,19H2,(H,21,22)

$$$$
82
  Marvin  11101114192D          

 15 16  0  0  0  0            999 V2000
    0.7145   -0.4125    0.0000 N   0  0  0  0  0  0  0  0  0  0  0  0
    0.7145   -1.2375    0.0000 C   0  0  0  0  0  0  0  0  0  0  0  0
    1.4289   -1.6500    0.0000 C   0  0  0  0  0  0  0  0  0  0  0  0
    1.4289   -2.4750    0.0000 C   0  0  0  0  0  0  0  0  0  0  0  0
    0.7145   -2.8875    0.0000 N   0  0  0  0  0  0  0  0  0  0  0  0
    0.0000   -2.4750    0.0000 C   0  0  0  0  0  0  0  0  0  0  0  0
   -0.7145   -2.8875    0.0000 N   0  0  0  0  0  0  0  0  0  0  0  0
    0.0000   -1.6500    0.0000 N   0  3  0  0  0  0  0  0  0  0  0  0
   -0.7145   -1.2375    0.0000 O   0  5  0  0  0  0  0  0  0  0  0  0
    2.1434   -2.8875    0.0000 N   0  0  0  0  0  0  0  0  0  0  0  0
    2.8579   -2.4750    0.0000 C   0  0  0  0  0  0  0  0  0  0  0  0
    3.5724   -2.8875    0.0000 C   0  0  0  0  0  0  0  0  0  0  0  0
    3.5724   -3.7125    0.0000 C   0  0  0  0  0  0  0  0  0  0  0  0
    2.8579   -4.1250    0.0000 C   0  0  0  0  0  0  0  0  0  0  0  0
    2.1434   -3.7125    0.0000 C   0  0  0  0  0  0  0  0  0  0  0  0
  1  2  1  0  0  0  0
  2  3  4  0  0  0  0
  3  4  4  0  0  0  0
  4  5  4  0  0  0  0
  5  6  4  0  0  0  0
  6  7  1  0  0  0  0
  6  8  4  0  0  0  0
  2  8  4  0  0  0  0
  8  9  1  0  0  0  0
  4 10  1  0  0  0  0
 10 11  1  0  0  0  0
 11 12  1  0  0  0  0
 12 13  1  0  0  0  0
 13 14  1  0  0  0  0
 14 15  1  0  0  0  0
 10 15  1  0  0  0  0
M  CHG  2   8   1   9  -1
M  END

> <ChembankId>
82

> <SMILES>
Nc1cc(nc(N)[n+]1[O-])N2CCCCC2

> <InChI>
1/C9H15N5O/c10-7-6-8(12-9(11)14(7)15)13-4-2-1-3-5-13/h6H,1-5,10H2,(H2,11,12)

$$$$
429
  Marvin  11101114192D          

 13 14  0  0  0  0            999 V2000
   -0.1781   -3.1062    0.0000 N   0  0  0  0  0  0  0  0  0  0  0  0
    0.0768   -2.3215    0.0000 C   0  0  0  0  0  0  0  0  0  0  0  0
    0.8838   -2.1500    0.0000 C   0  0  0  0  0  0  0  0  0  0  0  0
    1.1387   -1.3654    0.0000 C   0  0  0  0  0  0  0  0  0  0  0  0
    0.6538   -0.6979    0.0000 C   0  0  0  0  0  0  0  0  0  0  0  0
    1.1387   -0.0305    0.0000 N   0  0  0  0  0  0  0  0  0  0  0  0
    1.9233   -0.2854    0.0000 C   0  0  0  0  0  0  0  0  0  0  0  0
    2.6378    0.1271    0.0000 C   0  0  0  0  0  0  0  0  0  0  0  0
    3.3523   -0.2854    0.0000 C   0  0  0  0  0  0  0  0  0  0  0  0
    3.3523   -1.1104    0.0000 C   0  0  0  0  0  0  0  0  0  0  0  0
    4.0668   -1.5229    0.0000 O   0  0  0  0  0  0  0  0  0  0  0  0
    2.6378   -1.5229    0.0000 C   0  0  0  0  0  0  0  0  0  0  0  0
    1.9233   -1.1104    0.0000 C   0  0  0  0  0  0  0  0  0  0  0  0
  1  2  1  0  0  0  0
  2  3  1  0  0  0  0
  3  4  1  0  0  0  0
  4  5  4  0  0  0  0
  5  6  4  0  0  0  0
  6  7  4  0  0  0  0
  7  8  4  0  0  0  0
  8  9  4  0  0  0  0
  9 10  4  0  0  0  0
 10 11  1  0  0  0  0
 10 12  4  0  0  0  0
 12 13  4  0  0  0  0
  4 13  4  0  0  0  0
  7 13  4  0  0  0  0
M  STY  1   1 DAT
M  SAL   1  1   6
M  SDT   1 MRV_IMPLICIT_H                                        
M  SDD   1     0.0000    0.0000    DR    ALL  0       0  
M  SED   1 IMPL_H1
M  END

> <ChembankId>
429

> <SMILES>
NCCc1c[nH]c2ccc(O)cc12

> <InChI>
1/C10H12N2O/c11-4-3-7-6-12-10-2-1-8(13)5-9(7)10/h1-2,5-6,12-13H,3-4,11H2

$$$$
3002368
  Marvin  11101114192D          

 19 20  0  0  1  0            999 V2000
    4.2868    0.0000    0.0000 C   0  0  0  0  0  0  0  0  0  0  0  0
    5.0013    0.4125    0.0000 C   0  0  0  0  0  0  0  0  0  0  0  0
    5.0013    1.2375    0.0000 C   0  0  0  0  0  0  0  0  0  0  0  0
    5.7158    0.0000    0.0000 N   0  0  0  0  0  0  0  0  0  0  0  0
    6.4302    0.4125    0.0000 C   0  0  0  0  0  0  0  0  0  0  0  0
    7.1447    0.0000    0.0000 C   0  0  2  0  0  0  0  0  0  0  0  0
    7.1447   -0.8250    0.0000 O   0  0  0  0  0  0  0  0  0  0  0  0
    7.8592    0.4125    0.0000 C   0  0  0  0  0  0  0  0  0  0  0  0
    8.5737    0.0000    0.0000 O   0  0  0  0  0  0  0  0  0  0  0  0
    9.2881    0.4125    0.0000 C   0  0  0  0  0  0  0  0  0  0  0  0
    9.2881    1.2375    0.0000 C   0  0  0  0  0  0  0  0  0  0  0  0
   10.0026    1.6500    0.0000 C   0  0  0  0  0  0  0  0  0  0  0  0
   10.7171    1.2375    0.0000 C   0  0  0  0  0  0  0  0  0  0  0  0
   10.7171    0.4125    0.0000 C   0  0  0  0  0  0  0  0  0  0  0  0
   11.4315    0.0000    0.0000 C   0  0  0  0  0  0  0  0  0  0  0  0
   11.4315   -0.8250    0.0000 C   0  0  0  0  0  0  0  0  0  0  0  0
   10.7171   -1.2375    0.0000 C   0  0  0  0  0  0  0  0  0  0  0  0
   10.0026   -0.8250    0.0000 C   0  0  0  0  0  0  0  0  0  0  0  0
   10.0026    0.0000    0.0000 C   0  0  0  0  0  0  0  0  0  0  0  0
  1  2  1  0  0  0  0
  2  3  1  0  0  0  0
  2  4  1  0  0  0  0
  4  5  1  0  0  0  0
  5  6  1  0  0  0  0
  6  7  1  1  0  0  0
  6  8  1  0  0  0  0
  8  9  1  0  0  0  0
  9 10  1  0  0  0  0
 10 11  4  0  0  0  0
 11 12  4  0  0  0  0
 12 13  4  0  0  0  0
 13 14  4  0  0  0  0
 14 15  4  0  0  0  0
 15 16  4  0  0  0  0
 16 17  4  0  0  0  0
 17 18  4  0  0  0  0
 18 19  4  0  0  0  0
 10 19  4  0  0  0  0
 14 19  4  0  0  0  0
M  END

> <ChembankId>
3002368

> <SMILES>
CC(C)NC[C@H](O)COc1cccc2ccccc12

> <InChI>
1/C16H21NO2/c1-12(2)17-10-14(18)11-19-16-9-5-7-13-6-3-4-8-15(13)16/h3-9,12,14,17-18H,10-11H2,1-2H3

$$$$
351
  Marvin  11101114192D          

 19 20  0  0  0  0            999 V2000
    4.2868    0.0000    0.0000 C   0  0  0  0  0  0  0  0  0  0  0  0
    5.0013    0.4125    0.0000 C   0  0  0  0  0  0  0  0  0  0  0  0
    5.0013    1.2375    0.0000 C   0  0  0  0  0  0  0  0  0  0  0  0
    5.7158    0.0000    0.0000 N   0  0  0  0  0  0  0  0  0  0  0  0
    6.4302    0.4125    0.0000 C   0  0  0  0  0  0  0  0  0  0  0  0
    7.1447    0.0000    0.0000 C   0  0  0  0  0  0  0  0  0  0  0  0
    7.1447   -0.8250    0.0000 O   0  0  0  0  0  0  0  0  0  0  0  0
    7.8592    0.4125    0.0000 C   0  0  0  0  0  0  0  0  0  0  0  0
    8.5737    0.0000    0.0000 O   0  0  0  0  0  0  0  0  0  0  0  0
    9.2881    0.4125    0.0000 C   0  0  0  0  0  0  0  0  0  0  0  0
    9.2881    1.2375    0.0000 C   0  0  0  0  0  0  0  0  0  0  0  0
   10.0026    1.6500    0.0000 C   0  0  0  0  0  0  0  0  0  0  0  0
   10.7171    1.2375    0.0000 C   0  0  0  0  0  0  0  0  0  0  0  0
   10.7171    0.4125    0.0000 C   0  0  0  0  0  0  0  0  0  0  0  0
   11.4315    0.0000    0.0000 C   0  0  0  0  0  0  0  0  0  0  0  0
   11.4315   -0.8250    0.0000 C   0  0  0  0  0  0  0  0  0  0  0  0
   10.7171   -1.2375    0.0000 C   0  0  0  0  0  0  0  0  0  0  0  0
   10.0026   -0.8250    0.0000 C   0  0  0  0  0  0  0  0  0  0  0  0
   10.0026    0.0000    0.0000 C   0  0  0  0  0  0  0  0  0  0  0  0
  1  2  1  0  0  0  0
  2  3  1  0  0  0  0
  2  4  1  0  0  0  0
  4  5  1  0  0  0  0
  5  6  1  0  0  0  0
  6  7  1  0  0  0  0
  6  8  1  0  0  0  0
  8  9  1  0  0  0  0
  9 10  1  0  0  0  0
 10 11  4  0  0  0  0
 11 12  4  0  0  0  0
 12 13  4  0  0  0  0
 13 14  4  0  0  0  0
 14 15  4  0  0  0  0
 15 16  4  0  0  0  0
 16 17  4  0  0  0  0
 17 18  4  0  0  0  0
 18 19  4  0  0  0  0
 10 19  4  0  0  0  0
 14 19  4  0  0  0  0
M  END

> <ChembankId>
351

> <SMILES>
CC(C)NCC(O)COc1cccc2ccccc12

> <InChI>
1/C16H21NO2/c1-12(2)17-10-14(18)11-19-16-9-5-7-13-6-3-4-8-15(13)16/h3-9,12,14,17-18H,10-11H2,1-2H3

$$$$
239
  Marvin  11101114192D          

 31 32  0  0  0  0            999 V2000
    6.2388   -1.9520    0.0000 C   0  0  0  0  0  0  0  0  0  0  0  0
    5.4138   -1.9520    0.0000 C   0  0  0  0  0  0  0  0  0  0  0  0
    5.0013   -2.6664    0.0000 O   0  0  0  0  0  0  0  0  0  0  0  0
    5.0013   -1.2375    0.0000 O   0  0  0  0  0  0  0  0  0  0  0  0
    4.2890   -1.2073    0.0000 C   0  0  0  0  0  0  0  0  0  0  0  0
    3.7638   -0.5230    0.0000 O   0  0  0  0  0  0  0  0  0  0  0  0
    2.9388   -0.5230    0.0000 C   0  0  0  0  0  0  0  0  0  0  0  0
    2.5263    0.1914    0.0000 C   0  0  0  0  0  0  0  0  0  0  0  0
    1.7013    0.1914    0.0000 C   0  0  0  0  0  0  0  0  0  0  0  0
    1.2888    0.9059    0.0000 C   0  0  0  0  0  0  0  0  0  0  0  0
    1.7013    1.6204    0.0000 C   0  0  0  0  0  0  0  0  0  0  0  0
    1.2888    2.3349    0.0000 C   0  0  0  0  0  0  0  0  0  0  0  0
    1.7013    3.0493    0.0000 C   0  0  0  0  0  0  0  0  0  0  0  0
    2.5263    3.0493    0.0000 C   0  0  0  0  0  0  0  0  0  0  0  0
    2.9388    2.3349    0.0000 C   0  0  0  0  0  0  0  0  0  0  0  0
    2.5263    1.6204    0.0000 C   0  0  0  0  0  0  0  0  0  0  0  0
    2.9388    0.9059    0.0000 C   0  0  0  0  0  0  0  0  0  0  0  0
    2.5263   -1.2375    0.0000 P   0  0  0  0  0  0  0  0  0  0  0  0
    1.8118   -0.8250    0.0000 O   0  0  0  0  0  0  0  0  0  0  0  0
    2.1138   -1.9520    0.0000 O   0  0  0  0  0  0  0  0  0  0  0  0
    1.2888   -1.9520    0.0000 C   0  0  0  0  0  0  0  0  0  0  0  0
    0.8763   -2.6664    0.0000 O   0  0  0  0  0  0  0  0  0  0  0  0
    0.0513   -2.6664    0.0000 C   0  0  0  0  0  0  0  0  0  0  0  0
   -0.3612   -3.3809    0.0000 O   0  0  0  0  0  0  0  0  0  0  0  0
   -0.3612   -1.9520    0.0000 C   0  0  0  0  0  0  0  0  0  0  0  0
    3.2408   -1.6500    0.0000 O   0  0  0  0  0  0  0  0  0  0  0  0
    3.9552   -1.2375    0.0000 C   0  0  0  0  0  0  0  0  0  0  0  0
    4.6697   -1.6500    0.0000 O   0  0  0  0  0  0  0  0  0  0  0  0
    5.3842   -1.2375    0.0000 C   0  0  0  0  0  0  0  0  0  0  0  0
    5.3842   -0.4125    0.0000 O   0  0  0  0  0  0  0  0  0  0  0  0
    6.0987   -1.6500    0.0000 C   0  0  0  0  0  0  0  0  0  0  0  0
  1  2  1  0  0  0  0
  2  3  2  0  0  0  0
  2  4  1  0  0  0  0
  4  5  1  0  0  0  0
  5  6  1  0  0  0  0
  6  7  1  0  0  0  0
  7  8  1  0  0  0  0
  8  9  4  0  0  0  0
  9 10  4  0  0  0  0
 10 11  4  0  0  0  0
 11 12  4  0  0  0  0
 12 13  4  0  0  0  0
 13 14  4  0  0  0  0
 14 15  4  0  0  0  0
 15 16  4  0  0  0  0
 11 16  4  0  0  0  0
 16 17  4  0  0  0  0
  8 17  4  0  0  0  0
  7 18  1  0  0  0  0
 18 19  2  0  0  0  0
 18 20  1  0  0  0  0
 20 21  1  0  0  0  0
 21 22  1  0  0  0  0
 22 23  1  0  0  0  0
 23 24  2  0  0  0  0
 23 25  1  0  0  0  0
 18 26  1  0  0  0  0
 26 27  1  0  0  0  0
 27 28  1  0  0  0  0
 28 29  1  0  0  0  0
 29 30  2  0  0  0  0
 29 31  1  0  0  0  0
M  END

> <ChembankId>
239

> <SMILES>
CC(=O)OCOC(c1ccc2ccccc2c1)P(=O)(OCOC(=O)C)OCOC(=O)C

> <InChI>
1/C20H23O10P/c1-14(21)25-11-28-20(19-9-8-17-6-4-5-7-18(17)10-19)31(24,29-12-26-15(2)22)30-13-27-16(3)23/h4-10,20H,11-13H2,1-3H3

$$$$
747
  Marvin  11101114192D          

 23 25  0  0  0  0            999 V2000
    2.1434   -2.8875    0.0000 C   0  0  0  0  0  0  0  0  0  0  0  0
    1.4289   -2.4750    0.0000 C   0  0  0  0  0  0  0  0  0  0  0  0
    1.4289   -1.6500    0.0000 N   0  0  0  0  0  0  0  0  0  0  0  0
    0.7145   -1.2375    0.0000 C   0  0  0  0  0  0  0  0  0  0  0  0
    0.7145   -0.4125    0.0000 C   0  0  0  0  0  0  0  0  0  0  0  0
    0.0000    0.0000    0.0000 C   0  0  0  0  0  0  0  0  0  0  0  0
   -0.7145   -0.4125    0.0000 O   0  0  0  0  0  0  0  0  0  0  0  0
    0.0000    0.8250    0.0000 O   0  0  0  0  0  0  0  0  0  0  0  0
    1.4289    0.0000    0.0000 C   0  0  0  0  0  0  0  0  0  0  0  0
    1.4289    0.8250    0.0000 O   0  0  0  0  0  0  0  0  0  0  0  0
    2.1434   -0.4125    0.0000 C   0  0  0  0  0  0  0  0  0  0  0  0
    2.8579    0.0000    0.0000 C   0  0  0  0  0  0  0  0  0  0  0  0
    3.5724   -0.4125    0.0000 C   0  0  0  0  0  0  0  0  0  0  0  0
    4.2868   -0.0000    0.0000 F   0  0  0  0  0  0  0  0  0  0  0  0
    3.5724   -1.2375    0.0000 C   0  0  0  0  0  0  0  0  0  0  0  0
    2.8579   -1.6500    0.0000 C   0  0  0  0  0  0  0  0  0  0  0  0
    2.1434   -1.2375    0.0000 C   0  0  0  0  0  0  0  0  0  0  0  0
    4.2868   -1.6500    0.0000 N   0  0  0  0  0  0  0  0  0  0  0  0
    5.0013   -1.2375    0.0000 C   0  0  0  0  0  0  0  0  0  0  0  0
    5.7158   -1.6500    0.0000 C   0  0  0  0  0  0  0  0  0  0  0  0
    5.7158   -2.4750    0.0000 N   0  0  0  0  0  0  0  0  0  0  0  0
    5.0013   -2.8875    0.0000 C   0  0  0  0  0  0  0  0  0  0  0  0
    4.2868   -2.4750    0.0000 C   0  0  0  0  0  0  0  0  0  0  0  0
  1  2  1  0  0  0  0
  2  3  1  0  0  0  0
  3  4  4  0  0  0  0
  4  5  4  0  0  0  0
  5  6  1  0  0  0  0
  6  7  2  0  0  0  0
  6  8  1  0  0  0  0
  5  9  4  0  0  0  0
  9 10  2  0  0  0  0
  9 11  4  0  0  0  0
 11 12  4  0  0  0  0
 12 13  4  0  0  0  0
 13 14  1  0  0  0  0
 13 15  4  0  0  0  0
 15 16  4  0  0  0  0
 16 17  4  0  0  0  0
  3 17  4  0  0  0  0
 11 17  4  0  0  0  0
 15 18  1  0  0  0  0
 18 19  1  0  0  0  0
 19 20  1  0  0  0  0
 20 21  1  0  0  0  0
 21 22  1  0  0  0  0
 22 23  1  0  0  0  0
 18 23  1  0  0  0  0
M  END

> <ChembankId>
747

> <SMILES>
CCn1cc(C(=O)O)c(=O)c2cc(F)c(cc12)N3CCNCC3

> <InChI>
1/C16H18FN3O3/c1-2-19-9-11(16(22)23)15(21)10-7-12(17)14(8-13(10)19)20-5-3-18-4-6-20/h7-9,18H,2-6H2,1H3,(H,22,23)

$$$$
349
  Marvin  11101114192D          

 28 31  0  0  0  0            999 V2000
   -0.7145   -0.4125    0.0000 C   0  0  0  0  0  0  0  0  0  0  0  0
    0.0000    0.0000    0.0000 O   0  0  0  0  0  0  0  0  0  0  0  0
    0.7145   -0.4125    0.0000 C   0  0  0  0  0  0  0  0  0  0  0  0
    1.4289    0.0000    0.0000 C   0  0  0  0  0  0  0  0  0  0  0  0
    2.1434   -0.4125    0.0000 C   0  0  0  0  0  0  0  0  0  0  0  0
    2.8579    0.0000    0.0000 N   0  0  0  0  0  0  0  0  0  0  0  0
    3.5724   -0.4125    0.0000 C   0  0  0  0  0  0  0  0  0  0  0  0
    3.5724   -1.2375    0.0000 N   0  0  0  0  0  0  0  0  0  0  0  0
    2.8579   -1.6500    0.0000 C   0  0  0  0  0  0  0  0  0  0  0  0
    2.8579   -2.4750    0.0000 N   0  0  0  0  0  0  0  0  0  0  0  0
    2.1434   -1.2375    0.0000 C   0  0  0  0  0  0  0  0  0  0  0  0
    1.4289   -1.6500    0.0000 C   0  0  0  0  0  0  0  0  0  0  0  0
    0.7145   -1.2375    0.0000 C   0  0  0  0  0  0  0  0  0  0  0  0
    0.0000   -1.6500    0.0000 O   0  0  0  0  0  0  0  0  0  0  0  0
    0.0000   -2.4750    0.0000 C   0  0  0  0  0  0  0  0  0  0  0  0
    4.2868   -0.0000    0.0000 N   0  0  0  0  0  0  0  0  0  0  0  0
    4.2868    0.8250    0.0000 C   0  0  0  0  0  0  0  0  0  0  0  0
    5.0013    1.2375    0.0000 C   0  0  0  0  0  0  0  0  0  0  0  0
    5.7158    0.8250    0.0000 N   0  0  0  0  0  0  0  0  0  0  0  0
    5.7158   -0.0000    0.0000 C   0  0  0  0  0  0  0  0  0  0  0  0
    5.0013   -0.4125    0.0000 C   0  0  0  0  0  0  0  0  0  0  0  0
    6.4302    1.2375    0.0000 C   0  0  0  0  0  0  0  0  0  0  0  0
    6.4302    2.0625    0.0000 O   0  0  0  0  0  0  0  0  0  0  0  0
    7.1447    0.8250    0.0000 C   0  0  0  0  0  0  0  0  0  0  0  0
    7.8984    1.1606    0.0000 C   0  0  0  0  0  0  0  0  0  0  0  0
    8.4504    0.5475    0.0000 C   0  0  0  0  0  0  0  0  0  0  0  0
    8.0379   -0.1670    0.0000 C   0  0  0  0  0  0  0  0  0  0  0  0
    7.2309    0.0045    0.0000 O   0  0  0  0  0  0  0  0  0  0  0  0
  1  2  1  0  0  0  0
  2  3  1  0  0  0  0
  3  4  4  0  0  0  0
  4  5  4  0  0  0  0
  5  6  4  0  0  0  0
  6  7  4  0  0  0  0
  7  8  4  0  0  0  0
  8  9  4  0  0  0  0
  9 10  1  0  0  0  0
  9 11  4  0  0  0  0
  5 11  4  0  0  0  0
 11 12  4  0  0  0  0
 12 13  4  0  0  0  0
  3 13  4  0  0  0  0
 13 14  1  0  0  0  0
 14 15  1  0  0  0  0
  7 16  1  0  0  0  0
 16 17  1  0  0  0  0
 17 18  1  0  0  0  0
 18 19  1  0  0  0  0
 19 20  1  0  0  0  0
 20 21  1  0  0  0  0
 16 21  1  0  0  0  0
 19 22  1  0  0  0  0
 22 23  2  0  0  0  0
 22 24  1  0  0  0  0
 24 25  4  0  0  0  0
 25 26  4  0  0  0  0
 26 27  4  0  0  0  0
 27 28  4  0  0  0  0
 24 28  4  0  0  0  0
M  END

> <ChembankId>
349

> <SMILES>
COc1cc2nc(nc(N)c2cc1OC)N3CCN(CC3)C(=O)c4ccco4

> <InChI>
1/C19H21N5O4/c1-26-15-10-12-13(11-16(15)27-2)21-19(22-17(12)20)24-7-5-23(6-8-24)18(25)14-4-3-9-28-14/h3-4,9-11H,5-8H2,1-2H3,(H2,20,21,22)

$$$$
900
  Marvin  11101114192D          

 22 24  0  0  0  0            999 V2000
    4.0668    2.3479    0.0000 C   0  0  0  0  0  0  0  0  0  0  0  0
    3.3523    1.9354    0.0000 N   0  0  0  0  0  0  0  0  0  0  0  0
    3.3523    1.1104    0.0000 C   0  0  0  0  0  0  0  0  0  0  0  0
    2.6378    0.6979    0.0000 C   0  0  0  0  0  0  0  0  0  0  0  0
    2.6378   -0.1271    0.0000 O   0  0  0  0  0  0  0  0  0  0  0  0
    1.9233    1.1104    0.0000 C   0  0  0  0  0  0  0  0  0  0  0  0
    1.1387    0.8555    0.0000 S   0  0  0  0  0  0  0  0  0  0  0  0
    0.6538    1.5229    0.0000 C   0  0  0  0  0  0  0  0  0  0  0  0
    1.1387    2.1904    0.0000 C   0  0  0  0  0  0  0  0  0  0  0  0
    1.9233    1.9354    0.0000 C   0  0  0  0  0  0  0  0  0  0  0  0
    2.6378    2.3479    0.0000 S   0  0  0  0  0  0  0  0  0  0  0  0
    2.2505    3.0764    0.0000 O   0  0  0  0  0  0  0  0  0  0  0  0
    3.0251    3.0764    0.0000 O   0  0  0  0  0  0  0  0  0  0  0  0
    4.0668    0.6979    0.0000 C   0  0  0  0  0  0  0  0  0  0  0  0
    4.0668   -0.1271    0.0000 O   0  0  0  0  0  0  0  0  0  0  0  0
    4.7812    1.1104    0.0000 N   0  0  0  0  0  0  0  0  0  0  0  0
    5.4957    0.6979    0.0000 C   0  0  0  0  0  0  0  0  0  0  0  0
    6.2102    1.1104    0.0000 C   0  0  0  0  0  0  0  0  0  0  0  0
    6.9246    0.6979    0.0000 C   0  0  0  0  0  0  0  0  0  0  0  0
    6.9246   -0.1271    0.0000 C   0  0  0  0  0  0  0  0  0  0  0  0
    6.2102   -0.5396    0.0000 C   0  0  0  0  0  0  0  0  0  0  0  0
    5.4957   -0.1271    0.0000 N   0  0  0  0  0  0  0  0  0  0  0  0
  1  2  1  0  0  0  0
  2  3  1  0  0  0  0
  3  4  2  0  0  0  0
  4  5  1  0  0  0  0
  4  6  1  0  0  0  0
  6  7  4  0  0  0  0
  7  8  4  0  0  0  0
  8  9  4  0  0  0  0
  9 10  4  0  0  0  0
  6 10  4  0  0  0  0
 10 11  1  0  0  0  0
  2 11  1  0  0  0  0
 11 12  2  0  0  0  0
 11 13  2  0  0  0  0
  3 14  1  0  0  0  0
 14 15  2  0  0  0  0
 14 16  1  0  0  0  0
 16 17  1  0  0  0  0
 17 18  4  0  0  0  0
 18 19  4  0  0  0  0
 19 20  4  0  0  0  0
 20 21  4  0  0  0  0
 21 22  4  0  0  0  0
 17 22  4  0  0  0  0
M  END

> <ChembankId>
900

> <SMILES>
CN1C(=C(O)c2sccc2S1(=O)=O)C(=O)Nc3ccccn3

> <InChI>
1/C13H11N3O4S2/c1-16-10(13(18)15-9-4-2-3-6-14-9)11(17)12-8(5-7-21-12)22(16,19)20/h2-7,17H,1H3,(H,14,15,18)

$$$$
26
  Marvin  11101114192D          

 31 33  0  0  0  0            999 V2000
    1.5030   -3.4379    0.0000 C   0  0  0  0  0  0  0  0  0  0  0  0
    2.0551   -2.8248    0.0000 C   0  0  0  0  0  0  0  0  0  0  0  0
    1.8001   -2.0402    0.0000 C   0  0  0  0  0  0  0  0  0  0  0  0
    2.3522   -1.4271    0.0000 C   0  0  0  0  0  0  0  0  0  0  0  0
    2.0972   -0.6424    0.0000 C   0  0  0  0  0  0  0  0  0  0  0  0
    1.3126   -0.3875    0.0000 O   0  0  0  0  0  0  0  0  0  0  0  0
    1.3126    0.4375    0.0000 C   0  0  0  0  0  0  0  0  0  0  0  0
    0.6995    0.9895    0.0000 C   0  0  0  0  0  0  0  0  0  0  0  0
    0.8710    1.7965    0.0000 C   0  0  0  0  0  0  0  0  0  0  0  0
    1.6556    2.0514    0.0000 C   0  0  0  0  0  0  0  0  0  0  0  0
    2.2687    1.4994    0.0000 C   0  0  0  0  0  0  0  0  0  0  0  0
    2.0972    0.6924    0.0000 C   0  0  0  0  0  0  0  0  0  0  0  0
    2.5821    0.0250    0.0000 C   0  0  0  0  0  0  0  0  0  0  0  0
    3.4071    0.0250    0.0000 C   0  0  0  0  0  0  0  0  0  0  0  0
    3.8196    0.7395    0.0000 O   0  0  0  0  0  0  0  0  0  0  0  0
    3.8196   -0.6895    0.0000 C   0  0  0  0  0  0  0  0  0  0  0  0
    4.6446   -0.6895    0.0000 C   0  0  0  0  0  0  0  0  0  0  0  0
    5.0571   -1.4039    0.0000 C   0  0  0  0  0  0  0  0  0  0  0  0
    5.8821   -1.4039    0.0000 I   0  0  0  0  0  0  0  0  0  0  0  0
    4.6446   -2.1184    0.0000 C   0  0  0  0  0  0  0  0  0  0  0  0
    5.0571   -2.8329    0.0000 O   0  0  0  0  0  0  0  0  0  0  0  0
    5.8821   -2.8329    0.0000 C   0  0  0  0  0  0  0  0  0  0  0  0
    6.2946   -3.5474    0.0000 C   0  0  0  0  0  0  0  0  0  0  0  0
    7.1196   -3.5474    0.0000 N   0  0  0  0  0  0  0  0  0  0  0  0
    7.5321   -4.2618    0.0000 C   0  0  0  0  0  0  0  0  0  0  0  0
    8.3571   -4.2618    0.0000 C   0  0  0  0  0  0  0  0  0  0  0  0
    7.5321   -2.8329    0.0000 C   0  0  0  0  0  0  0  0  0  0  0  0
    8.3571   -2.8329    0.0000 C   0  0  0  0  0  0  0  0  0  0  0  0
    3.8196   -2.1184    0.0000 C   0  0  0  0  0  0  0  0  0  0  0  0
    3.4071   -2.8329    0.0000 I   0  0  0  0  0  0  0  0  0  0  0  0
    3.4071   -1.4039    0.0000 C   0  0  0  0  0  0  0  0  0  0  0  0
  1  2  1  0  0  0  0
  2  3  1  0  0  0  0
  3  4  1  0  0  0  0
  4  5  1  0  0  0  0
  5  6  4  0  0  0  0
  6  7  4  0  0  0  0
  7  8  4  0  0  0  0
  8  9  4  0  0  0  0
  9 10  4  0  0  0  0
 10 11  4  0  0  0  0
 11 12  4  0  0  0  0
  7 12  4  0  0  0  0
 12 13  4  0  0  0  0
  5 13  4  0  0  0  0
 13 14  1  0  0  0  0
 14 15  2  0  0  0  0
 14 16  1  0  0  0  0
 16 17  4  0  0  0  0
 17 18  4  0  0  0  0
 18 19  1  0  0  0  0
 18 20  4  0  0  0  0
 20 21  1  0  0  0  0
 21 22  1  0  0  0  0
 22 23  1  0  0  0  0
 23 24  1  0  0  0  0
 24 25  1  0  0  0  0
 25 26  1  0  0  0  0
 24 27  1  0  0  0  0
 27 28  1  0  0  0  0
 20 29  4  0  0  0  0
 29 30  1  0  0  0  0
 29 31  4  0  0  0  0
 16 31  4  0  0  0  0
M  END

> <ChembankId>
26

> <SMILES>
CCCCc1oc2ccccc2c1C(=O)c3cc(I)c(OCCN(CC)CC)c(I)c3

> <InChI>
1/C25H29I2NO3/c1-4-7-11-22-23(18-10-8-9-12-21(18)31-22)24(29)17-15-19(26)25(20(27)16-17)30-14-13-28(5-2)6-3/h8-10,12,15-16H,4-7,11,13-14H2,1-3H3

$$$$
35
  Marvin  11101114192D          

 14 15  0  0  0  0            999 V2000
    0.0000    0.0000    0.0000 C   0  0  0  0  0  0  0  0  0  0  0  0
    0.7145   -0.4125    0.0000 C   0  0  0  0  0  0  0  0  0  0  0  0
    1.4289    0.0000    0.0000 N   0  0  0  0  0  0  0  0  0  0  0  0
    2.1434   -0.4125    0.0000 C   0  0  0  0  0  0  0  0  0  0  0  0
    2.8579    0.0000    0.0000 C   0  0  0  0  0  0  0  0  0  0  0  0
    3.5724   -0.4125    0.0000 C   0  0  0  0  0  0  0  0  0  0  0  0
    3.5724   -1.2375    0.0000 C   0  0  0  0  0  0  0  0  0  0  0  0
    4.2868   -1.6500    0.0000 Cl  0  0  0  0  0  0  0  0  0  0  0  0
    2.8579   -1.6500    0.0000 C   0  0  0  0  0  0  0  0  0  0  0  0
    2.1434   -1.2375    0.0000 C   0  0  0  0  0  0  0  0  0  0  0  0
    1.4289   -1.6500    0.0000 S   0  0  0  0  0  0  0  0  0  0  0  0
    1.9592   -2.2820    0.0000 O   0  0  0  0  0  0  0  0  0  0  0  0
    0.8986   -2.2820    0.0000 O   0  0  0  0  0  0  0  0  0  0  0  0
    0.7145   -1.2375    0.0000 N   0  0  0  0  0  0  0  0  0  0  0  0
  1  2  1  0  0  0  0
  2  3  2  0  0  0  0
  3  4  1  0  0  0  0
  4  5  4  0  0  0  0
  5  6  4  0  0  0  0
  6  7  4  0  0  0  0
  7  8  1  0  0  0  0
  7  9  4  0  0  0  0
  9 10  4  0  0  0  0
  4 10  4  0  0  0  0
 10 11  1  0  0  0  0
 11 12  2  0  0  0  0
 11 13  2  0  0  0  0
 11 14  1  0  0  0  0
  2 14  1  0  0  0  0
M  END

> <ChembankId>
35

> <SMILES>
CC1=Nc2ccc(Cl)cc2S(=O)(=O)N1

> <InChI>
1/C8H7ClN2O2S/c1-5-10-7-3-2-6(9)4-8(7)14(12,13)11-5/h2-4H,1H3,(H,10,11)

$$$$
72
  Marvin  11101114192D          

 31 33  0  0  0  0            999 V2000
   -5.7158   -8.2500    0.0000 C   0  0  0  0  0  0  0  0  0  0  0  0
   -5.0013   -7.8375    0.0000 C   0  0  0  0  0  0  0  0  0  0  0  0
   -5.0013   -7.0125    0.0000 C   0  0  0  0  0  0  0  0  0  0  0  0
   -4.2868   -6.6000    0.0000 N   0  0  0  0  0  0  0  0  0  0  0  0
   -3.5724   -7.0125    0.0000 C   0  0  0  0  0  0  0  0  0  0  0  0
   -3.5724   -7.8375    0.0000 C   0  0  0  0  0  0  0  0  0  0  0  0
   -4.2868   -8.2500    0.0000 N   0  0  0  0  0  0  0  0  0  0  0  0
   -2.8579   -6.6000    0.0000 C   0  0  0  0  0  0  0  0  0  0  0  0
   -2.1434   -7.0125    0.0000 O   0  0  0  0  0  0  0  0  0  0  0  0
   -2.8579   -5.7750    0.0000 N   0  0  0  0  0  0  0  0  0  0  0  0
   -2.1434   -5.3625    0.0000 C   0  0  0  0  0  0  0  0  0  0  0  0
   -2.1434   -4.5375    0.0000 C   0  0  0  0  0  0  0  0  0  0  0  0
   -1.4289   -4.1250    0.0000 C   0  0  0  0  0  0  0  0  0  0  0  0
   -1.4289   -3.3000    0.0000 C   0  0  0  0  0  0  0  0  0  0  0  0
   -0.7145   -2.8875    0.0000 C   0  0  0  0  0  0  0  0  0  0  0  0
    0.0000   -3.3000    0.0000 C   0  0  0  0  0  0  0  0  0  0  0  0
    0.0000   -4.1250    0.0000 C   0  0  0  0  0  0  0  0  0  0  0  0
   -0.7145   -4.5375    0.0000 C   0  0  0  0  0  0  0  0  0  0  0  0
    0.7145   -2.8875    0.0000 S   0  0  0  0  0  0  0  0  0  0  0  0
    1.1270   -3.6020    0.0000 O   0  0  0  0  0  0  0  0  0  0  0  0
    0.3020   -2.1730    0.0000 O   0  0  0  0  0  0  0  0  0  0  0  0
    1.4289   -2.4750    0.0000 N   0  0  0  0  0  0  0  0  0  0  0  0
    2.1434   -2.8875    0.0000 C   0  0  0  0  0  0  0  0  0  0  0  0
    2.1434   -3.7125    0.0000 O   0  0  0  0  0  0  0  0  0  0  0  0
    2.8579   -2.4750    0.0000 N   0  0  0  0  0  0  0  0  0  0  0  0
    3.5724   -2.8875    0.0000 C   0  0  0  0  0  0  0  0  0  0  0  0
    4.2868   -2.4750    0.0000 C   0  0  0  0  0  0  0  0  0  0  0  0
    5.0013   -2.8875    0.0000 C   0  0  0  0  0  0  0  0  0  0  0  0
    5.0013   -3.7125    0.0000 C   0  0  0  0  0  0  0  0  0  0  0  0
    4.2868   -4.1250    0.0000 C   0  0  0  0  0  0  0  0  0  0  0  0
    3.5724   -3.7125    0.0000 C   0  0  0  0  0  0  0  0  0  0  0  0
  1  2  1  0  0  0  0
  2  3  4  0  0  0  0
  3  4  4  0  0  0  0
  4  5  4  0  0  0  0
  5  6  4  0  0  0  0
  6  7  4  0  0  0  0
  2  7  4  0  0  0  0
  5  8  1  0  0  0  0
  8  9  2  0  0  0  0
  8 10  1  0  0  0  0
 10 11  1  0  0  0  0
 11 12  1  0  0  0  0
 12 13  1  0  0  0  0
 13 14  4  0  0  0  0
 14 15  4  0  0  0  0
 15 16  4  0  0  0  0
 16 17  4  0  0  0  0
 17 18  4  0  0  0  0
 13 18  4  0  0  0  0
 16 19  1  0  0  0  0
 19 20  2  0  0  0  0
 19 21  2  0  0  0  0
 19 22  1  0  0  0  0
 22 23  1  0  0  0  0
 23 24  2  0  0  0  0
 23 25  1  0  0  0  0
 25 26  1  0  0  0  0
 26 27  1  0  0  0  0
 27 28  1  0  0  0  0
 28 29  1  0  0  0  0
 29 30  1  0  0  0  0
 30 31  1  0  0  0  0
 26 31  1  0  0  0  0
M  END

> <ChembankId>
72

> <SMILES>
Cc1cnc(cn1)C(=O)NCCc2ccc(cc2)S(=O)(=O)NC(=O)NC3CCCCC3

> <InChI>
1/C21H27N5O4S/c1-15-13-24-19(14-23-15)20(27)22-12-11-16-7-9-18(10-8-16)31(29,30)26-21(28)25-17-5-3-2-4-6-17/h7-10,13-14,17H,2-6,11-12H2,1H3,(H,22,27)(H2,25,26,28)

$$$$
74
  Marvin  11101114192D          

 33 35  0  0  0  0            999 V2000
   -5.0013   -7.8375    0.0000 C   0  0  0  0  0  0  0  0  0  0  0  0
   -5.0013   -7.0125    0.0000 O   0  0  0  0  0  0  0  0  0  0  0  0
   -5.7158   -6.6000    0.0000 C   0  0  0  0  0  0  0  0  0  0  0  0
   -6.4302   -7.0125    0.0000 C   0  0  0  0  0  0  0  0  0  0  0  0
   -7.1447   -6.6000    0.0000 C   0  0  0  0  0  0  0  0  0  0  0  0
   -7.1447   -5.7750    0.0000 C   0  0  0  0  0  0  0  0  0  0  0  0
   -7.8592   -5.3625    0.0000 Cl  0  0  0  0  0  0  0  0  0  0  0  0
   -6.4302   -5.3625    0.0000 C   0  0  0  0  0  0  0  0  0  0  0  0
   -5.7158   -5.7750    0.0000 C   0  0  0  0  0  0  0  0  0  0  0  0
   -5.0013   -5.3625    0.0000 C   0  0  0  0  0  0  0  0  0  0  0  0
   -4.2868   -5.7750    0.0000 O   0  0  0  0  0  0  0  0  0  0  0  0
   -5.0013   -4.5375    0.0000 N   0  0  0  0  0  0  0  0  0  0  0  0
   -4.2868   -4.1250    0.0000 C   0  0  0  0  0  0  0  0  0  0  0  0
   -4.2868   -3.3000    0.0000 C   0  0  0  0  0  0  0  0  0  0  0  0
   -3.5724   -2.8875    0.0000 C   0  0  0  0  0  0  0  0  0  0  0  0
   -3.5724   -2.0625    0.0000 C   0  0  0  0  0  0  0  0  0  0  0  0
   -2.8579   -1.6500    0.0000 C   0  0  0  0  0  0  0  0  0  0  0  0
   -2.1434   -2.0625    0.0000 C   0  0  0  0  0  0  0  0  0  0  0  0
   -2.1434   -2.8875    0.0000 C   0  0  0  0  0  0  0  0  0  0  0  0
   -2.8579   -3.3000    0.0000 C   0  0  0  0  0  0  0  0  0  0  0  0
   -1.4289   -1.6500    0.0000 S   0  0  0  0  0  0  0  0  0  0  0  0
   -1.0164   -2.3645    0.0000 O   0  0  0  0  0  0  0  0  0  0  0  0
   -1.8414   -0.9355    0.0000 O   0  0  0  0  0  0  0  0  0  0  0  0
   -0.7145   -1.2375    0.0000 N   0  0  0  0  0  0  0  0  0  0  0  0
    0.0000   -1.6500    0.0000 C   0  0  0  0  0  0  0  0  0  0  0  0
    0.0000   -2.4750    0.0000 O   0  0  0  0  0  0  0  0  0  0  0  0
    0.7145   -1.2375    0.0000 N   0  0  0  0  0  0  0  0  0  0  0  0
    0.7145   -0.4125    0.0000 C   0  0  0  0  0  0  0  0  0  0  0  0
    0.0000    0.0000    0.0000 C   0  0  0  0  0  0  0  0  0  0  0  0
    0.0000    0.8250    0.0000 C   0  0  0  0  0  0  0  0  0  0  0  0
    0.7145    1.2375    0.0000 C   0  0  0  0  0  0  0  0  0  0  0  0
    1.4289    0.8250    0.0000 C   0  0  0  0  0  0  0  0  0  0  0  0
    1.4289    0.0000    0.0000 C   0  0  0  0  0  0  0  0  0  0  0  0
  1  2  1  0  0  0  0
  2  3  1  0  0  0  0
  3  4  4  0  0  0  0
  4  5  4  0  0  0  0
  5  6  4  0  0  0  0
  6  7  1  0  0  0  0
  6  8  4  0  0  0  0
  8  9  4  0  0  0  0
  3  9  4  0  0  0  0
  9 10  1  0  0  0  0
 10 11  2  0  0  0  0
 10 12  1  0  0  0  0
 12 13  1  0  0  0  0
 13 14  1  0  0  0  0
 14 15  1  0  0  0  0
 15 16  4  0  0  0  0
 16 17  4  0  0  0  0
 17 18  4  0  0  0  0
 18 19  4  0  0  0  0
 19 20  4  0  0  0  0
 15 20  4  0  0  0  0
 18 21  1  0  0  0  0
 21 22  2  0  0  0  0
 21 23  2  0  0  0  0
 21 24  1  0  0  0  0
 24 25  1  0  0  0  0
 25 26  2  0  0  0  0
 25 27  1  0  0  0  0
 27 28  1  0  0  0  0
 28 29  1  0  0  0  0
 29 30  1  0  0  0  0
 30 31  1  0  0  0  0
 31 32  1  0  0  0  0
 32 33  1  0  0  0  0
 28 33  1  0  0  0  0
M  END

> <ChembankId>
74

> <SMILES>
COc1ccc(Cl)cc1C(=O)NCCc2ccc(cc2)S(=O)(=O)NC(=O)NC3CCCCC3

> <InChI>
1/C23H28ClN3O5S/c1-32-21-12-9-17(24)15-20(21)22(28)25-14-13-16-7-10-19(11-8-16)33(30,31)27-23(29)26-18-5-3-2-4-6-18/h7-12,15,18H,2-6,13-14H2,1H3,(H,25,28)(H2,26,27,29)

$$$$
80
  Marvin  11101114192D          

 34 37  0  0  0  0            999 V2000
    2.0123   -3.0584    0.0000 C   0  0  0  0  0  0  0  0  0  0  0  0
    1.4289   -2.4750    0.0000 N   0  0  0  0  0  0  0  0  0  0  0  0
    0.6321   -2.6885    0.0000 C   0  0  0  0  0  0  0  0  0  0  0  0
    1.6425   -1.6781    0.0000 C   0  0  0  0  0  0  0  0  0  0  0  0
    1.0591   -1.0947    0.0000 O   0  0  0  0  0  0  0  0  0  0  0  0
    2.4394   -1.4646    0.0000 C   0  0  0  0  0  0  0  0  0  0  0  0
    2.6529   -2.2615    0.0000 C   0  0  0  0  0  0  0  0  0  0  0  0
    3.4498   -2.4750    0.0000 C   0  0  0  0  0  0  0  0  0  0  0  0
    3.6633   -3.2719    0.0000 N   0  0  0  0  0  0  0  0  0  0  0  0
    4.4602   -3.4854    0.0000 C   0  0  0  0  0  0  0  0  0  0  0  0
    4.6737   -4.2823    0.0000 C   0  0  0  0  0  0  0  0  0  0  0  0
    4.0903   -4.8657    0.0000 C   0  0  0  0  0  0  0  0  0  0  0  0
    4.7661   -5.3389    0.0000 O   0  0  0  0  0  0  0  0  0  0  0  0
    3.2935   -4.6521    0.0000 C   0  0  0  0  0  0  0  0  0  0  0  0
    3.0799   -3.8553    0.0000 C   0  0  0  0  0  0  0  0  0  0  0  0
    3.7417   -5.6134    0.0000 C   0  0  0  0  0  0  0  0  0  0  0  0
    4.2149   -6.2892    0.0000 C   0  0  0  0  0  0  0  0  0  0  0  0
    3.8662   -7.0369    0.0000 C   0  0  0  0  0  0  0  0  0  0  0  0
    3.0444   -7.1088    0.0000 C   0  0  0  0  0  0  0  0  0  0  0  0
    2.6957   -7.8565    0.0000 Cl  0  0  0  0  0  0  0  0  0  0  0  0
    2.5712   -6.4330    0.0000 C   0  0  0  0  0  0  0  0  0  0  0  0
    2.9198   -5.6853    0.0000 C   0  0  0  0  0  0  0  0  0  0  0  0
    2.2258   -0.6677    0.0000 C   0  0  0  0  0  0  0  0  0  0  0  0
    1.4289   -0.4542    0.0000 C   0  0  0  0  0  0  0  0  0  0  0  0
    1.2154    0.3427    0.0000 C   0  0  0  0  0  0  0  0  0  0  0  0
    1.7988    0.9261    0.0000 C   0  0  0  0  0  0  0  0  0  0  0  0
    2.5957    0.7126    0.0000 C   0  0  0  0  0  0  0  0  0  0  0  0
    2.8092   -0.0843    0.0000 C   0  0  0  0  0  0  0  0  0  0  0  0
    3.2362   -1.2511    0.0000 C   0  0  0  0  0  0  0  0  0  0  0  0
    3.4498   -0.4542    0.0000 C   0  0  0  0  0  0  0  0  0  0  0  0
    4.2467   -0.2406    0.0000 C   0  0  0  0  0  0  0  0  0  0  0  0
    4.8300   -0.8240    0.0000 C   0  0  0  0  0  0  0  0  0  0  0  0
    4.6165   -1.6209    0.0000 C   0  0  0  0  0  0  0  0  0  0  0  0
    3.8196   -1.8344    0.0000 C   0  0  0  0  0  0  0  0  0  0  0  0
  1  2  1  0  0  0  0
  2  3  1  0  0  0  0
  2  4  1  0  0  0  0
  4  5  2  0  0  0  0
  4  6  1  0  0  0  0
  6  7  1  0  0  0  0
  7  8  1  0  0  0  0
  8  9  1  0  0  0  0
  9 10  1  0  0  0  0
 10 11  1  0  0  0  0
 11 12  1  0  0  0  0
 12 13  1  0  0  0  0
 12 14  1  0  0  0  0
 14 15  1  0  0  0  0
  9 15  1  0  0  0  0
 12 16  1  0  0  0  0
 16 17  4  0  0  0  0
 17 18  4  0  0  0  0
 18 19  4  0  0  0  0
 19 20  1  0  0  0  0
 19 21  4  0  0  0  0
 21 22  4  0  0  0  0
 16 22  4  0  0  0  0
  6 23  1  0  0  0  0
 23 24  4  0  0  0  0
 24 25  4  0  0  0  0
 25 26  4  0  0  0  0
 26 27  4  0  0  0  0
 27 28  4  0  0  0  0
 23 28  4  0  0  0  0
  6 29  1  0  0  0  0
 29 30  4  0  0  0  0
 30 31  4  0  0  0  0
 31 32  4  0  0  0  0
 32 33  4  0  0  0  0
 33 34  4  0  0  0  0
 29 34  4  0  0  0  0
M  END

> <ChembankId>
80

> <SMILES>
CN(C)C(=O)C(CCN1CCC(O)(CC1)c2ccc(Cl)cc2)(c3ccccc3)c4ccccc4

> <InChI>
1/C29H33ClN2O2/c1-31(2)27(33)29(24-9-5-3-6-10-24,25-11-7-4-8-12-25)19-22-32-20-17-28(34,18-21-32)23-13-15-26(30)16-14-23/h3-16,34H,17-22H2,1-2H3

$$$$
86
  Marvin  11101114192D          

 35 37  0  0  0  0            999 V2000
   -2.1434   -5.3625    0.0000 C   0  0  0  0  0  0  0  0  0  0  0  0
   -1.4289   -4.9500    0.0000 O   0  0  0  0  0  0  0  0  0  0  0  0
   -1.4289   -4.1250    0.0000 C   0  0  0  0  0  0  0  0  0  0  0  0
   -2.1434   -3.7125    0.0000 O   0  0  0  0  0  0  0  0  0  0  0  0
   -0.7145   -3.7125    0.0000 C   0  0  0  0  0  0  0  0  0  0  0  0
   -0.7145   -2.8875    0.0000 C   0  0  0  0  0  0  0  0  0  0  0  0
   -1.4289   -2.4750    0.0000 C   0  0  0  0  0  0  0  0  0  0  0  0
    0.0000   -2.4750    0.0000 N   0  0  0  0  0  0  0  0  0  0  0  0
    0.7145   -2.8875    0.0000 C   0  0  0  0  0  0  0  0  0  0  0  0
    0.7145   -3.7125    0.0000 C   0  0  0  0  0  0  0  0  0  0  0  0
    0.0000   -4.1250    0.0000 C   0  0  0  0  0  0  0  0  0  0  0  0
    0.0000   -4.9500    0.0000 C   0  0  0  0  0  0  0  0  0  0  0  0
    0.7145   -5.3625    0.0000 C   0  0  0  0  0  0  0  0  0  0  0  0
    0.7145   -6.1875    0.0000 C   0  0  0  0  0  0  0  0  0  0  0  0
    0.0000   -6.6000    0.0000 C   0  0  0  0  0  0  0  0  0  0  0  0
   -0.7145   -6.1875    0.0000 C   0  0  0  0  0  0  0  0  0  0  0  0
   -0.7145   -5.3625    0.0000 C   0  0  0  0  0  0  0  0  0  0  0  0
   -1.4289   -6.6000    0.0000 N   0  3  0  0  0  0  0  0  0  0  0  0
   -1.4289   -7.4250    0.0000 O   0  0  0  0  0  0  0  0  0  0  0  0
   -2.1434   -6.1875    0.0000 O   0  5  0  0  0  0  0  0  0  0  0  0
    1.4289   -4.1250    0.0000 C   0  0  0  0  0  0  0  0  0  0  0  0
    1.4289   -4.9500    0.0000 O   0  0  0  0  0  0  0  0  0  0  0  0
    2.1434   -3.7125    0.0000 O   0  0  0  0  0  0  0  0  0  0  0  0
    2.8579   -4.1250    0.0000 C   0  0  0  0  0  0  0  0  0  0  0  0
    3.5724   -3.7125    0.0000 C   0  0  0  0  0  0  0  0  0  0  0  0
    4.2868   -4.1250    0.0000 N   0  0  0  0  0  0  0  0  0  0  0  0
    4.2868   -4.9500    0.0000 C   0  0  0  0  0  0  0  0  0  0  0  0
    5.0013   -3.7125    0.0000 C   0  0  0  0  0  0  0  0  0  0  0  0
    5.7158   -4.1250    0.0000 C   0  0  0  0  0  0  0  0  0  0  0  0
    6.4302   -3.7125    0.0000 C   0  0  0  0  0  0  0  0  0  0  0  0
    7.1447   -4.1250    0.0000 C   0  0  0  0  0  0  0  0  0  0  0  0
    7.1447   -4.9500    0.0000 C   0  0  0  0  0  0  0  0  0  0  0  0
    6.4302   -5.3625    0.0000 C   0  0  0  0  0  0  0  0  0  0  0  0
    5.7158   -4.9500    0.0000 C   0  0  0  0  0  0  0  0  0  0  0  0
    1.4289   -2.4750    0.0000 C   0  0  0  0  0  0  0  0  0  0  0  0
  1  2  1  0  0  0  0
  2  3  1  0  0  0  0
  3  4  2  0  0  0  0
  3  5  1  0  0  0  0
  5  6  2  0  0  0  0
  6  7  1  0  0  0  0
  6  8  1  0  0  0  0
  8  9  1  0  0  0  0
  9 10  2  0  0  0  0
 10 11  1  0  0  0  0
  5 11  1  0  0  0  0
 11 12  1  0  0  0  0
 12 13  4  0  0  0  0
 13 14  4  0  0  0  0
 14 15  4  0  0  0  0
 15 16  4  0  0  0  0
 16 17  4  0  0  0  0
 12 17  4  0  0  0  0
 16 18  1  0  0  0  0
 18 19  2  0  0  0  0
 18 20  1  0  0  0  0
 10 21  1  0  0  0  0
 21 22  2  0  0  0  0
 21 23  1  0  0  0  0
 23 24  1  0  0  0  0
 24 25  1  0  0  0  0
 25 26  1  0  0  0  0
 26 27  1  0  0  0  0
 26 28  1  0  0  0  0
 28 29  1  0  0  0  0
 29 30  4  0  0  0  0
 30 31  4  0  0  0  0
 31 32  4  0  0  0  0
 32 33  4  0  0  0  0
 33 34  4  0  0  0  0
 29 34  4  0  0  0  0
  9 35  1  0  0  0  0
M  CHG  2  18   1  20  -1
M  END

> <ChembankId>
86

> <SMILES>
COC(=O)C1=C(C)NC(=C(C1c2cccc(c2)[N+](=O)[O-])C(=O)OCCN(C)Cc3ccccc3)C

> <InChI>
1/C26H29N3O6/c1-17-22(25(30)34-4)24(20-11-8-12-21(15-20)29(32)33)23(18(2)27-17)26(31)35-14-13-28(3)16-19-9-6-5-7-10-19/h5-12,15,24,27H,13-14,16H2,1-4H3

$$$$
104
  Marvin  11101114192D          

 22 22  0  0  0  0            999 V2000
    2.8579    3.3000    0.0000 C   0  0  0  0  0  0  0  0  0  0  0  0
    2.8579    2.4750    0.0000 C   0  0  0  0  0  0  0  0  0  0  0  0
    3.5724    2.0625    0.0000 C   0  0  0  0  0  0  0  0  0  0  0  0
    4.2868    2.4750    0.0000 C   0  0  0  0  0  0  0  0  0  0  0  0
    5.0013    2.0625    0.0000 C   0  0  0  0  0  0  0  0  0  0  0  0
    5.7158    2.4750    0.0000 C   0  0  0  0  0  0  0  0  0  0  0  0
    6.4302    2.0625    0.0000 C   0  0  0  0  0  0  0  0  0  0  0  0
    7.1447    2.4750    0.0000 C   0  0  0  0  0  0  0  0  0  0  0  0
    7.8592    2.0625    0.0000 O   0  0  0  0  0  0  0  0  0  0  0  0
    7.1447    3.3000    0.0000 O   0  0  0  0  0  0  0  0  0  0  0  0
    5.7158    3.3000    0.0000 C   0  0  0  0  0  0  0  0  0  0  0  0
    2.1434    2.0625    0.0000 C   0  0  0  0  0  0  0  0  0  0  0  0
    2.1434    1.2375    0.0000 C   0  0  0  0  0  0  0  0  0  0  0  0
    1.4289    0.8250    0.0000 C   0  0  0  0  0  0  0  0  0  0  0  0
    1.4289   -0.0000    0.0000 C   0  0  0  0  0  0  0  0  0  0  0  0
    2.1434   -0.4125    0.0000 C   0  0  0  0  0  0  0  0  0  0  0  0
    0.7145   -0.4125    0.0000 C   0  0  0  0  0  0  0  0  0  0  0  0
    0.0000    0.0000    0.0000 C   0  0  0  0  0  0  0  0  0  0  0  0
    0.0000    0.8250    0.0000 C   0  0  0  0  0  0  0  0  0  0  0  0
    0.7145    1.2375    0.0000 C   0  0  0  0  0  0  0  0  0  0  0  0
    0.3272    1.9659    0.0000 C   0  0  0  0  0  0  0  0  0  0  0  0
    1.1018    1.9659    0.0000 C   0  0  0  0  0  0  0  0  0  0  0  0
  1  2  1  0  0  0  0
  2  3  2  0  0  0  0
  3  4  1  0  0  0  0
  4  5  2  0  0  0  0
  5  6  1  0  0  0  0
  6  7  2  0  0  0  0
  7  8  1  0  0  0  0
  8  9  2  0  0  0  0
  8 10  1  0  0  0  0
  6 11  1  0  0  0  0
  2 12  1  0  0  0  0
 12 13  2  0  0  0  0
 13 14  1  0  0  0  0
 14 15  2  0  0  0  0
 15 16  1  0  0  0  0
 15 17  1  0  0  0  0
 17 18  1  0  0  0  0
 18 19  1  0  0  0  0
 19 20  1  0  0  0  0
 14 20  1  0  0  0  0
 20 21  1  0  0  0  0
 20 22  1  0  0  0  0
M  END

> <ChembankId>
104

> <SMILES>
C/C(=C\C=C\C(=C\C(=O)O)\C)/C=C/C1=C(C)CCCC1(C)C

> <InChI>
1/C20H28O2/c1-15(8-6-9-16(2)14-19(21)22)11-12-18-17(3)10-7-13-20(18,4)5/h6,8-9,11-12,14H,7,10,13H2,1-5H3,(H,21,22)

$$$$
1000009
  Marvin  11101114192D          

 22 22  0  0  0  0            999 V2000
    3.5724    2.0625    0.0000 C   0  0  0  0  0  0  0  0  0  0  0  0
    2.8579    2.4750    0.0000 C   0  0  0  0  0  0  0  0  0  0  0  0
    2.8579    3.3000    0.0000 C   0  0  0  0  0  0  0  0  0  0  0  0
    3.5724    3.7125    0.0000 C   0  0  0  0  0  0  0  0  0  0  0  0
    3.5724    4.5375    0.0000 C   0  0  0  0  0  0  0  0  0  0  0  0
    4.2868    4.9500    0.0000 C   0  0  0  0  0  0  0  0  0  0  0  0
    4.2868    5.7750    0.0000 C   0  0  0  0  0  0  0  0  0  0  0  0
    3.5724    6.1875    0.0000 C   0  0  0  0  0  0  0  0  0  0  0  0
    3.5724    7.0125    0.0000 O   0  0  0  0  0  0  0  0  0  0  0  0
    2.8579    5.7750    0.0000 O   0  0  0  0  0  0  0  0  0  0  0  0
    5.0013    4.5375    0.0000 C   0  0  0  0  0  0  0  0  0  0  0  0
    2.1434    2.0625    0.0000 C   0  0  0  0  0  0  0  0  0  0  0  0
    2.1434    1.2375    0.0000 C   0  0  0  0  0  0  0  0  0  0  0  0
    1.4289    0.8250    0.0000 C   0  0  0  0  0  0  0  0  0  0  0  0
    1.4289   -0.0000    0.0000 C   0  0  0  0  0  0  0  0  0  0  0  0
    2.1434   -0.4125    0.0000 C   0  0  0  0  0  0  0  0  0  0  0  0
    0.7145   -0.4125    0.0000 C   0  0  0  0  0  0  0  0  0  0  0  0
    0.0000    0.0000    0.0000 C   0  0  0  0  0  0  0  0  0  0  0  0
    0.0000    0.8250    0.0000 C   0  0  0  0  0  0  0  0  0  0  0  0
    0.7145    1.2375    0.0000 C   0  0  0  0  0  0  0  0  0  0  0  0
    0.3272    1.9659    0.0000 C   0  0  0  0  0  0  0  0  0  0  0  0
    1.1018    1.9659    0.0000 C   0  0  0  0  0  0  0  0  0  0  0  0
  1  2  1  0  0  0  0
  2  3  2  0  0  0  0
  3  4  1  0  0  0  0
  4  5  2  0  0  0  0
  5  6  1  0  0  0  0
  6  7  2  0  0  0  0
  7  8  1  0  0  0  0
  8  9  2  0  0  0  0
  8 10  1  0  0  0  0
  6 11  1  0  0  0  0
  2 12  1  0  0  0  0
 12 13  2  0  0  0  0
 13 14  1  0  0  0  0
 14 15  2  0  0  0  0
 15 16  1  0  0  0  0
 15 17  1  0  0  0  0
 17 18  1  0  0  0  0
 18 19  1  0  0  0  0
 19 20  1  0  0  0  0
 14 20  1  0  0  0  0
 20 21  1  0  0  0  0
 20 22  1  0  0  0  0
M  END

> <ChembankId>
1000009

> <SMILES>
C/C(=C\C=C\C(=C/C(=O)O)\C)/C=C/C1=C(C)CCCC1(C)C

> <InChI>
1/C20H28O2/c1-15(8-6-9-16(2)14-19(21)22)11-12-18-17(3)10-7-13-20(18,4)5/h6,8-9,11-12,14H,7,10,13H2,1-5H3,(H,21,22)

$$$$
112
  Marvin  11101114192D          

 20 21  0  0  0  0            999 V2000
    0.0000   -0.0000    0.0000 O   0  0  0  0  0  0  0  0  0  0  0  0
   -0.7145   -0.4125    0.0000 C   0  0  0  0  0  0  0  0  0  0  0  0
   -1.4289    0.0000    0.0000 O   0  0  0  0  0  0  0  0  0  0  0  0
   -0.7145   -1.2375    0.0000 C   0  0  0  0  0  0  0  0  0  0  0  0
    0.0000   -1.6500    0.0000 C   0  0  0  0  0  0  0  0  0  0  0  0
    0.0000   -2.4750    0.0000 C   0  0  0  0  0  0  0  0  0  0  0  0
   -0.7145   -2.8875    0.0000 C   0  0  0  0  0  0  0  0  0  0  0  0
   -1.4289   -2.4750    0.0000 N   0  0  0  0  0  0  0  0  0  0  0  0
   -1.4289   -1.6500    0.0000 C   0  0  0  0  0  0  0  0  0  0  0  0
   -2.1434   -1.2375    0.0000 N   0  0  0  0  0  0  0  0  0  0  0  0
   -2.8579   -1.6500    0.0000 C   0  0  0  0  0  0  0  0  0  0  0  0
   -2.8579   -2.4750    0.0000 C   0  0  0  0  0  0  0  0  0  0  0  0
   -3.5724   -2.8875    0.0000 C   0  0  0  0  0  0  0  0  0  0  0  0
   -4.2868   -2.4750    0.0000 C   0  0  0  0  0  0  0  0  0  0  0  0
   -4.2868   -1.6500    0.0000 C   0  0  0  0  0  0  0  0  0  0  0  0
   -3.5724   -1.2375    0.0000 C   0  0  0  0  0  0  0  0  0  0  0  0
   -5.0013   -1.2375    0.0000 C   0  0  0  0  0  0  0  0  0  0  0  0
   -5.7158   -0.8250    0.0000 F   0  0  0  0  0  0  0  0  0  0  0  0
   -4.5888   -0.5230    0.0000 F   0  0  0  0  0  0  0  0  0  0  0  0
   -5.4138   -1.9520    0.0000 F   0  0  0  0  0  0  0  0  0  0  0  0
  1  2  1  0  0  0  0
  2  3  2  0  0  0  0
  2  4  1  0  0  0  0
  4  5  4  0  0  0  0
  5  6  4  0  0  0  0
  6  7  4  0  0  0  0
  7  8  4  0  0  0  0
  8  9  4  0  0  0  0
  4  9  4  0  0  0  0
  9 10  1  0  0  0  0
 10 11  1  0  0  0  0
 11 12  4  0  0  0  0
 12 13  4  0  0  0  0
 13 14  4  0  0  0  0
 14 15  4  0  0  0  0
 15 16  4  0  0  0  0
 11 16  4  0  0  0  0
 15 17  1  0  0  0  0
 17 18  1  0  0  0  0
 17 19  1  0  0  0  0
 17 20  1  0  0  0  0
M  END

> <ChembankId>
112

> <SMILES>
OC(=O)c1cccnc1Nc2cccc(c2)C(F)(F)F

> <InChI>
1/C13H9F3N2O2/c14-13(15,16)8-3-1-4-9(7-8)18-11-10(12(19)20)5-2-6-17-11/h1-7H,(H,17,18)(H,19,20)

$$$$
115
  Marvin  11101114192D          

 30 31  0  0  0  0            999 V2000
    3.8743    0.7145    0.0000 C   0  0  0  0  0  0  0  0  0  0  0  0
    4.2868   -0.0000    0.0000 O   0  0  0  0  0  0  0  0  0  0  0  0
    5.1118   -0.0000    0.0000 C   0  0  0  0  0  0  0  0  0  0  0  0
    5.5243   -0.7145    0.0000 C   0  0  0  0  0  0  0  0  0  0  0  0
    6.3493   -0.7145    0.0000 O   0  0  0  0  0  0  0  0  0  0  0  0
    6.7618   -0.0000    0.0000 C   0  0  0  0  0  0  0  0  0  0  0  0
    6.3493    0.7145    0.0000 O   0  0  0  0  0  0  0  0  0  0  0  0
    7.5868   -0.0000    0.0000 C   0  0  0  0  0  0  0  0  0  0  0  0
    7.9993    0.7145    0.0000 C   0  0  0  0  0  0  0  0  0  0  0  0
    7.5868    1.4289    0.0000 C   0  0  0  0  0  0  0  0  0  0  0  0
    8.8243    0.7145    0.0000 N   0  0  0  0  0  0  0  0  0  0  0  0
    9.2368   -0.0000    0.0000 C   0  0  0  0  0  0  0  0  0  0  0  0
    8.8243   -0.7145    0.0000 C   0  0  0  0  0  0  0  0  0  0  0  0
    7.9993   -0.7145    0.0000 C   0  0  0  0  0  0  0  0  0  0  0  0
    7.5868   -1.4289    0.0000 C   0  0  0  0  0  0  0  0  0  0  0  0
    7.9993   -2.1434    0.0000 C   0  0  0  0  0  0  0  0  0  0  0  0
    7.5868   -2.8579    0.0000 C   0  0  0  0  0  0  0  0  0  0  0  0
    6.7618   -2.8579    0.0000 C   0  0  0  0  0  0  0  0  0  0  0  0
    6.3493   -2.1434    0.0000 C   0  0  0  0  0  0  0  0  0  0  0  0
    6.7618   -1.4289    0.0000 C   0  0  0  0  0  0  0  0  0  0  0  0
    5.5243   -2.1434    0.0000 N   0  3  0  0  0  0  0  0  0  0  0  0
    5.1118   -2.8579    0.0000 O   0  0  0  0  0  0  0  0  0  0  0  0
    5.1118   -1.4289    0.0000 O   0  5  0  0  0  0  0  0  0  0  0  0
    9.2368   -1.4289    0.0000 C   0  0  0  0  0  0  0  0  0  0  0  0
    8.8243   -2.1434    0.0000 O   0  0  0  0  0  0  0  0  0  0  0  0
   10.0618   -1.4289    0.0000 O   0  0  0  0  0  0  0  0  0  0  0  0
   10.4743   -2.1434    0.0000 C   0  0  0  0  0  0  0  0  0  0  0  0
   11.2993   -2.1434    0.0000 C   0  0  0  0  0  0  0  0  0  0  0  0
   10.0618   -2.8579    0.0000 C   0  0  0  0  0  0  0  0  0  0  0  0
   10.0618   -0.0000    0.0000 C   0  0  0  0  0  0  0  0  0  0  0  0
  1  2  1  0  0  0  0
  2  3  1  0  0  0  0
  3  4  1  0  0  0  0
  4  5  1  0  0  0  0
  5  6  1  0  0  0  0
  6  7  2  0  0  0  0
  6  8  1  0  0  0  0
  8  9  2  0  0  0  0
  9 10  1  0  0  0  0
  9 11  1  0  0  0  0
 11 12  1  0  0  0  0
 12 13  2  0  0  0  0
 13 14  1  0  0  0  0
  8 14  1  0  0  0  0
 14 15  1  0  0  0  0
 15 16  4  0  0  0  0
 16 17  4  0  0  0  0
 17 18  4  0  0  0  0
 18 19  4  0  0  0  0
 19 20  4  0  0  0  0
 15 20  4  0  0  0  0
 19 21  1  0  0  0  0
 21 22  2  0  0  0  0
 21 23  1  0  0  0  0
 13 24  1  0  0  0  0
 24 25  2  0  0  0  0
 24 26  1  0  0  0  0
 26 27  1  0  0  0  0
 27 28  1  0  0  0  0
 27 29  1  0  0  0  0
 12 30  1  0  0  0  0
M  CHG  2  21   1  23  -1
M  END

> <ChembankId>
115

> <SMILES>
COCCOC(=O)C1=C(C)NC(=C(C1c2cccc(c2)[N+](=O)[O-])C(=O)OC(C)C)C

> <InChI>
1/C21H26N2O7/c1-12(2)30-21(25)18-14(4)22-13(3)17(20(24)29-10-9-28-5)19(18)15-7-6-8-16(11-15)23(26)27/h6-8,11-12,19,22H,9-10H2,1-5H3

$$$$
117
  Marvin  11101114192D          

 26 27  0  0  0  0            999 V2000
    2.1434    1.2375    0.0000 C   0  0  0  0  0  0  0  0  0  0  0  0
    1.4289    0.8250    0.0000 C   0  0  0  0  0  0  0  0  0  0  0  0
    1.4289   -0.0000    0.0000 O   0  0  0  0  0  0  0  0  0  0  0  0
    0.7145   -0.4125    0.0000 C   0  0  0  0  0  0  0  0  0  0  0  0
    0.0000    0.0000    0.0000 O   0  0  0  0  0  0  0  0  0  0  0  0
    0.7145   -1.2375    0.0000 C   0  0  0  0  0  0  0  0  0  0  0  0
    1.4289   -1.6500    0.0000 C   0  0  0  0  0  0  0  0  0  0  0  0
    2.1434   -1.2375    0.0000 C   0  0  0  0  0  0  0  0  0  0  0  0
    1.4289   -2.4750    0.0000 N   0  0  0  0  0  0  0  0  0  0  0  0
    0.7145   -2.8875    0.0000 C   0  0  0  0  0  0  0  0  0  0  0  0
    0.0000   -2.4750    0.0000 C   0  0  0  0  0  0  0  0  0  0  0  0
    0.0000   -1.6500    0.0000 C   0  0  0  0  0  0  0  0  0  0  0  0
   -0.7145   -1.2375    0.0000 C   0  0  0  0  0  0  0  0  0  0  0  0
   -1.4289   -1.6500    0.0000 C   0  0  0  0  0  0  0  0  0  0  0  0
   -2.1434   -1.2375    0.0000 C   0  0  0  0  0  0  0  0  0  0  0  0
   -2.1434   -0.4125    0.0000 C   0  0  0  0  0  0  0  0  0  0  0  0
   -1.4289   -0.0000    0.0000 C   0  0  0  0  0  0  0  0  0  0  0  0
   -0.7145   -0.4125    0.0000 C   0  0  0  0  0  0  0  0  0  0  0  0
   -1.4289    0.8250    0.0000 N   0  3  0  0  0  0  0  0  0  0  0  0
   -2.1434    1.2375    0.0000 O   0  0  0  0  0  0  0  0  0  0  0  0
   -0.7145    1.2375    0.0000 O   0  5  0  0  0  0  0  0  0  0  0  0
   -0.7145   -2.8875    0.0000 C   0  0  0  0  0  0  0  0  0  0  0  0
   -1.4289   -2.4750    0.0000 O   0  0  0  0  0  0  0  0  0  0  0  0
   -0.7145   -3.7125    0.0000 O   0  0  0  0  0  0  0  0  0  0  0  0
   -1.4289   -4.1250    0.0000 C   0  0  0  0  0  0  0  0  0  0  0  0
    0.7145   -3.7125    0.0000 C   0  0  0  0  0  0  0  0  0  0  0  0
  1  2  1  0  0  0  0
  2  3  1  0  0  0  0
  3  4  1  0  0  0  0
  4  5  2  0  0  0  0
  4  6  1  0  0  0  0
  6  7  2  0  0  0  0
  7  8  1  0  0  0  0
  7  9  1  0  0  0  0
  9 10  1  0  0  0  0
 10 11  2  0  0  0  0
 11 12  1  0  0  0  0
  6 12  1  0  0  0  0
 12 13  1  0  0  0  0
 13 14  4  0  0  0  0
 14 15  4  0  0  0  0
 15 16  4  0  0  0  0
 16 17  4  0  0  0  0
 17 18  4  0  0  0  0
 13 18  4  0  0  0  0
 17 19  1  0  0  0  0
 19 20  2  0  0  0  0
 19 21  1  0  0  0  0
 11 22  1  0  0  0  0
 22 23  2  0  0  0  0
 22 24  1  0  0  0  0
 24 25  1  0  0  0  0
 10 26  1  0  0  0  0
M  CHG  2  19   1  21  -1
M  END

> <ChembankId>
117

> <SMILES>
CCOC(=O)C1=C(C)NC(=C(C1c2cccc(c2)[N+](=O)[O-])C(=O)OC)C

> <InChI>
1/C18H20N2O6/c1-5-26-18(22)15-11(3)19-10(2)14(17(21)25-4)16(15)12-7-6-8-13(9-12)20(23)24/h6-9,16,19H,5H2,1-4H3

$$$$
134
  Marvin  11101114192D          

 26 28  0  0  0  0            999 V2000
   -1.4289    0.8250    0.0000 C   0  0  0  0  0  0  0  0  0  0  0  0
   -1.4289    0.0000    0.0000 C   0  0  0  0  0  0  0  0  0  0  0  0
   -2.1434   -0.4125    0.0000 C   0  0  0  0  0  0  0  0  0  0  0  0
   -2.8579    0.0000    0.0000 C   0  0  0  0  0  0  0  0  0  0  0  0
   -3.5724   -0.4125    0.0000 C   0  0  0  0  0  0  0  0  0  0  0  0
   -4.2868    0.0000    0.0000 C   0  0  0  0  0  0  0  0  0  0  0  0
   -4.2868    0.8250    0.0000 C   0  0  0  0  0  0  0  0  0  0  0  0
   -3.5724    1.2375    0.0000 C   0  0  0  0  0  0  0  0  0  0  0  0
   -2.8579    0.8250    0.0000 C   0  0  0  0  0  0  0  0  0  0  0  0
   -5.0013    1.2375    0.0000 C   0  0  0  0  0  0  0  0  0  0  0  0
   -5.0013    2.0625    0.0000 O   0  0  0  0  0  0  0  0  0  0  0  0
   -5.7158    0.8250    0.0000 O   0  0  0  0  0  0  0  0  0  0  0  0
   -0.7145   -0.4125    0.0000 C   0  0  0  0  0  0  0  0  0  0  0  0
   -0.7145   -1.2375    0.0000 C   0  0  0  0  0  0  0  0  0  0  0  0
    0.0000   -1.6500    0.0000 C   0  0  0  0  0  0  0  0  0  0  0  0
    0.7145   -1.2375    0.0000 C   0  0  0  0  0  0  0  0  0  0  0  0
    0.7145   -0.4125    0.0000 C   0  0  0  0  0  0  0  0  0  0  0  0
    0.0000   -0.0000    0.0000 C   0  0  0  0  0  0  0  0  0  0  0  0
    1.4289   -0.0000    0.0000 C   0  0  0  0  0  0  0  0  0  0  0  0
    0.8986    0.6320    0.0000 C   0  0  0  0  0  0  0  0  0  0  0  0
    1.9592    0.6320    0.0000 C   0  0  0  0  0  0  0  0  0  0  0  0
    2.1434   -0.4125    0.0000 C   0  0  0  0  0  0  0  0  0  0  0  0
    2.1434   -1.2375    0.0000 C   0  0  0  0  0  0  0  0  0  0  0  0
    1.4289   -1.6500    0.0000 C   0  0  0  0  0  0  0  0  0  0  0  0
    1.8163   -2.3784    0.0000 C   0  0  0  0  0  0  0  0  0  0  0  0
    1.0416   -2.3784    0.0000 C   0  0  0  0  0  0  0  0  0  0  0  0
  1  2  1  0  0  0  0
  2  3  2  0  0  0  0
  3  4  1  0  0  0  0
  4  5  4  0  0  0  0
  5  6  4  0  0  0  0
  6  7  4  0  0  0  0
  7  8  4  0  0  0  0
  8  9  4  0  0  0  0
  4  9  4  0  0  0  0
  7 10  1  0  0  0  0
 10 11  2  0  0  0  0
 10 12  1  0  0  0  0
  2 13  1  0  0  0  0
 13 14  4  0  0  0  0
 14 15  4  0  0  0  0
 15 16  4  0  0  0  0
 16 17  4  0  0  0  0
 17 18  4  0  0  0  0
 13 18  4  0  0  0  0
 17 19  1  0  0  0  0
 19 20  1  0  0  0  0
 19 21  1  0  0  0  0
 19 22  1  0  0  0  0
 22 23  1  0  0  0  0
 23 24  1  0  0  0  0
 16 24  1  0  0  0  0
 24 25  1  0  0  0  0
 24 26  1  0  0  0  0
M  END

> <ChembankId>
134

> <SMILES>
C/C(=C\c1ccc(cc1)C(=O)O)/c2ccc3c(c2)C(C)(C)CCC3(C)C

> <InChI>
1/C24H28O2/c1-16(14-17-6-8-18(9-7-17)22(25)26)19-10-11-20-21(15-19)24(4,5)13-12-23(20,2)3/h6-11,14-15H,12-13H2,1-5H3,(H,25,26)

$$$$
138
  Marvin  11101114192D          

 21 22  0  0  0  0            999 V2000
   -0.7145   -0.4125    0.0000 C   0  0  0  0  0  0  0  0  0  0  0  0
   -0.7145   -1.2375    0.0000 C   0  0  0  0  0  0  0  0  0  0  0  0
    0.0000   -1.6500    0.0000 C   0  0  0  0  0  0  0  0  0  0  0  0
    0.0000   -2.4750    0.0000 C   0  0  0  0  0  0  0  0  0  0  0  0
   -0.7145   -2.8875    0.0000 C   0  0  0  0  0  0  0  0  0  0  0  0
   -1.4289   -2.4750    0.0000 C   0  0  0  0  0  0  0  0  0  0  0  0
   -2.1434   -2.8875    0.0000 N   0  0  0  0  0  0  0  0  0  0  0  0
   -2.1434   -3.7125    0.0000 C   0  0  0  0  0  0  0  0  0  0  0  0
   -1.4289   -4.1250    0.0000 C   0  0  0  0  0  0  0  0  0  0  0  0
   -1.4289   -4.9500    0.0000 C   0  0  0  0  0  0  0  0  0  0  0  0
   -0.7145   -5.3625    0.0000 Cl  0  0  0  0  0  0  0  0  0  0  0  0
   -2.1434   -5.3625    0.0000 N   0  0  0  0  0  0  0  0  0  0  0  0
   -2.8579   -4.9500    0.0000 C   0  0  0  0  0  0  0  0  0  0  0  0
   -3.5724   -5.3625    0.0000 S   0  0  0  0  0  0  0  0  0  0  0  0
   -3.5724   -6.1875    0.0000 C   0  0  0  0  0  0  0  0  0  0  0  0
   -4.2868   -6.6000    0.0000 C   0  0  0  0  0  0  0  0  0  0  0  0
   -4.2868   -7.4250    0.0000 O   0  0  0  0  0  0  0  0  0  0  0  0
   -5.0013   -6.1875    0.0000 O   0  0  0  0  0  0  0  0  0  0  0  0
   -2.8579   -4.1250    0.0000 N   0  0  0  0  0  0  0  0  0  0  0  0
   -1.4289   -1.6500    0.0000 C   0  0  0  0  0  0  0  0  0  0  0  0
   -2.1434   -1.2375    0.0000 C   0  0  0  0  0  0  0  0  0  0  0  0
  1  2  1  0  0  0  0
  2  3  4  0  0  0  0
  3  4  4  0  0  0  0
  4  5  4  0  0  0  0
  5  6  4  0  0  0  0
  6  7  1  0  0  0  0
  7  8  1  0  0  0  0
  8  9  4  0  0  0  0
  9 10  4  0  0  0  0
 10 11  1  0  0  0  0
 10 12  4  0  0  0  0
 12 13  4  0  0  0  0
 13 14  1  0  0  0  0
 14 15  1  0  0  0  0
 15 16  1  0  0  0  0
 16 17  2  0  0  0  0
 16 18  1  0  0  0  0
 13 19  4  0  0  0  0
  8 19  4  0  0  0  0
  6 20  4  0  0  0  0
  2 20  4  0  0  0  0
 20 21  1  0  0  0  0
M  END

> <ChembankId>
138

> <SMILES>
Cc1cccc(Nc2cc(Cl)nc(SCC(=O)O)n2)c1C

> <InChI>
1/C14H14ClN3O2S/c1-8-4-3-5-10(9(8)2)16-12-6-11(15)17-14(18-12)21-7-13(19)20/h3-6H,7H2,1-2H3,(H,19,20)(H,16,17,18)

$$$$
153
  Marvin  11101114192D          

 21 23  0  0  0  0            999 V2000
   -2.0367    4.3527    0.0000 C   0  0  0  0  0  0  0  0  0  0  0  0
   -2.0367    3.5277    0.0000 C   0  0  0  0  0  0  0  0  0  0  0  0
   -1.3222    3.1152    0.0000 C   0  0  0  0  0  0  0  0  0  0  0  0
   -1.3222    2.2902    0.0000 C   0  0  0  0  0  0  0  0  0  0  0  0
   -2.0367    1.8777    0.0000 C   0  0  0  0  0  0  0  0  0  0  0  0
   -2.7512    2.2902    0.0000 C   0  0  0  0  0  0  0  0  0  0  0  0
   -2.7512    3.1152    0.0000 C   0  0  0  0  0  0  0  0  0  0  0  0
   -2.0367    1.0527    0.0000 N   0  0  0  0  0  0  0  0  0  0  0  0
   -1.3222    0.6402    0.0000 C   0  0  0  0  0  0  0  0  0  0  0  0
   -1.3222   -0.1848    0.0000 C   0  0  0  0  0  0  0  0  0  0  0  0
   -0.6548   -0.6697    0.0000 N   0  0  0  0  0  0  0  0  0  0  0  0
   -0.9097   -1.4544    0.0000 C   0  0  0  0  0  0  0  0  0  0  0  0
   -1.7347   -1.4544    0.0000 C   0  0  0  0  0  0  0  0  0  0  0  0
   -1.9897   -0.6697    0.0000 N   0  0  0  0  0  0  0  0  0  0  0  0
   -2.7512    0.6402    0.0000 C   0  0  0  0  0  0  0  0  0  0  0  0
   -2.7512   -0.1848    0.0000 C   0  0  0  0  0  0  0  0  0  0  0  0
   -3.4656   -0.5973    0.0000 C   0  0  0  0  0  0  0  0  0  0  0  0
   -4.1801   -0.1848    0.0000 C   0  0  0  0  0  0  0  0  0  0  0  0
   -4.1801    0.6402    0.0000 C   0  0  0  0  0  0  0  0  0  0  0  0
   -4.8946    1.0527    0.0000 O   0  0  0  0  0  0  0  0  0  0  0  0
   -3.4656    1.0527    0.0000 C   0  0  0  0  0  0  0  0  0  0  0  0
  1  2  1  0  0  0  0
  2  3  2  0  0  0  0
  3  4  1  0  0  0  0
  4  5  2  0  0  0  0
  5  6  1  0  0  0  0
  6  7  1  0  0  0  0
  2  7  1  0  0  0  0
  5  8  1  0  0  0  0
  8  9  1  0  0  0  0
  9 10  1  0  0  0  0
 10 11  2  0  0  0  0
 11 12  1  0  0  0  0
 12 13  1  0  0  0  0
 13 14  1  0  0  0  0
 10 14  1  0  0  0  0
  8 15  1  0  0  0  0
 15 16  4  0  0  0  0
 16 17  4  0  0  0  0
 17 18  4  0  0  0  0
 18 19  4  0  0  0  0
 19 20  1  0  0  0  0
 19 21  4  0  0  0  0
 15 21  4  0  0  0  0
M  END

> <ChembankId>
153

> <SMILES>
CC1=CC=C(CC1)N(CC2=NCCN2)c3cccc(O)c3

> <InChI>
1/C17H21N3O/c1-13-5-7-14(8-6-13)20(12-17-18-9-10-19-17)15-3-2-4-16(21)11-15/h2-5,7,11,21H,6,8-10,12H2,1H3,(H,18,19)

$$$$
156
  Marvin  11101114192D          

 35 39  0  0  0  0            999 V2000
   -0.0517   -9.6532    0.0000 F   0  0  0  0  0  0  0  0  0  0  0  0
    0.2033   -8.8685    0.0000 C   0  0  0  0  0  0  0  0  0  0  0  0
   -0.3488   -8.2554    0.0000 C   0  0  0  0  0  0  0  0  0  0  0  0
   -0.0938   -7.4708    0.0000 C   0  0  0  0  0  0  0  0  0  0  0  0
    0.7132   -7.2993    0.0000 C   0  0  0  0  0  0  0  0  0  0  0  0
    1.2652   -7.9124    0.0000 C   0  0  0  0  0  0  0  0  0  0  0  0
    1.0102   -8.6970    0.0000 C   0  0  0  0  0  0  0  0  0  0  0  0
    0.9681   -6.5147    0.0000 C   0  0  0  0  0  0  0  0  0  0  0  0
    0.4161   -5.9016    0.0000 C   0  0  0  0  0  0  0  0  0  0  0  0
    0.6710   -5.1170    0.0000 C   0  0  0  0  0  0  0  0  0  0  0  0
    0.1190   -4.5039    0.0000 C   0  0  0  0  0  0  0  0  0  0  0  0
    0.3739   -3.7192    0.0000 N   0  0  0  0  0  0  0  0  0  0  0  0
   -0.1781   -3.1062    0.0000 C   0  0  0  0  0  0  0  0  0  0  0  0
    0.0768   -2.3215    0.0000 C   0  0  0  0  0  0  0  0  0  0  0  0
    0.8838   -2.1500    0.0000 C   0  0  0  0  0  0  0  0  0  0  0  0
    1.4358   -2.7631    0.0000 C   0  0  0  0  0  0  0  0  0  0  0  0
    1.1809   -3.5477    0.0000 C   0  0  0  0  0  0  0  0  0  0  0  0
    1.1387   -1.3654    0.0000 N   0  0  0  0  0  0  0  0  0  0  0  0
    0.6538   -0.6979    0.0000 C   0  0  0  0  0  0  0  0  0  0  0  0
   -0.1712   -0.6979    0.0000 O   0  0  0  0  0  0  0  0  0  0  0  0
    1.1387   -0.0305    0.0000 N   0  0  0  0  0  0  0  0  0  0  0  0
    1.9233   -0.2854    0.0000 C   0  0  0  0  0  0  0  0  0  0  0  0
    2.6378    0.1271    0.0000 C   0  0  0  0  0  0  0  0  0  0  0  0
    3.3523   -0.2854    0.0000 C   0  0  0  0  0  0  0  0  0  0  0  0
    3.3523   -1.1104    0.0000 C   0  0  0  0  0  0  0  0  0  0  0  0
    2.6378   -1.5229    0.0000 C   0  0  0  0  0  0  0  0  0  0  0  0
    1.9233   -1.1104    0.0000 C   0  0  0  0  0  0  0  0  0  0  0  0
    1.7751   -6.3432    0.0000 C   0  0  0  0  0  0  0  0  0  0  0  0
    2.0300   -5.5585    0.0000 C   0  0  0  0  0  0  0  0  0  0  0  0
    2.8370   -5.3870    0.0000 C   0  0  0  0  0  0  0  0  0  0  0  0
    3.3890   -6.0001    0.0000 C   0  0  0  0  0  0  0  0  0  0  0  0
    4.1960   -5.8286    0.0000 F   0  0  0  0  0  0  0  0  0  0  0  0
    3.1341   -6.7847    0.0000 C   0  0  0  0  0  0  0  0  0  0  0  0
    2.3271   -6.9562    0.0000 C   0  0  0  0  0  0  0  0  0  0  0  0
    2.0722   -7.7409    0.0000 Cl  0  0  0  0  0  0  0  0  0  0  0  0
  1  2  1  0  0  0  0
  2  3  4  0  0  0  0
  3  4  4  0  0  0  0
  4  5  4  0  0  0  0
  5  6  4  0  0  0  0
  6  7  4  0  0  0  0
  2  7  4  0  0  0  0
  5  8  1  0  0  0  0
  8  9  1  0  0  0  0
  9 10  1  0  0  0  0
 10 11  1  0  0  0  0
 11 12  1  0  0  0  0
 12 13  1  0  0  0  0
 13 14  1  0  0  0  0
 14 15  1  0  0  0  0
 15 16  1  0  0  0  0
 16 17  1  0  0  0  0
 12 17  1  0  0  0  0
 15 18  1  0  0  0  0
 18 19  4  0  0  0  0
 19 20  2  0  0  0  0
 19 21  4  0  0  0  0
 21 22  4  0  0  0  0
 22 23  4  0  0  0  0
 23 24  4  0  0  0  0
 24 25  4  0  0  0  0
 25 26  4  0  0  0  0
 26 27  4  0  0  0  0
 18 27  4  0  0  0  0
 22 27  4  0  0  0  0
  8 28  1  0  0  0  0
 28 29  4  0  0  0  0
 29 30  4  0  0  0  0
 30 31  4  0  0  0  0
 31 32  1  0  0  0  0
 31 33  4  0  0  0  0
 33 34  4  0  0  0  0
 28 34  4  0  0  0  0
 34 35  1  0  0  0  0
M  STY  1   1 DAT
M  SAL   1  1  21
M  SDT   1 MRV_IMPLICIT_H                                        
M  SDD   1     0.0000    0.0000    DR    ALL  0       0  
M  SED   1 IMPL_H1
M  END

> <ChembankId>
156

> <SMILES>
Fc1ccc(cc1)C(CCCN2CCC(CC2)n3c(=O)[nH]c4ccccc34)c5ccc(F)cc5Cl

> <InChI>
1/C28H28ClF2N3O/c29-25-18-21(31)11-12-24(25)23(19-7-9-20(30)10-8-19)4-3-15-33-16-13-22(14-17-33)34-27-6-2-1-5-26(27)32-28(34)35/h1-2,5-12,18,22-23H,3-4,13-17H2,(H,32,35)/t23-/m0/s1

$$$$
161
  Marvin  11101114192D          

 24 27  0  0  1  0            999 V2000
    2.8579   -2.4750    0.0000 C   0  0  0  0  0  0  0  0  0  0  0  0
    2.8579   -1.6500    0.0000 O   0  0  0  0  0  0  0  0  0  0  0  0
    2.1434   -1.2375    0.0000 C   0  0  0  0  0  0  0  0  0  0  0  0
    1.4289   -1.6500    0.0000 C   0  0  0  0  0  0  0  0  0  0  0  0
    0.7145   -1.2375    0.0000 C   0  0  0  0  0  0  0  0  0  0  0  0
    0.7145   -0.4125    0.0000 C   0  0  0  0  0  0  0  0  0  0  0  0
    0.0000    0.0000    0.0000 N   0  0  0  0  0  0  0  0  0  0  0  0
    0.0000    0.8250    0.0000 C   0  0  0  0  0  0  0  0  0  0  0  0
    0.7145    1.2375    0.0000 C   0  0  0  0  0  0  0  0  0  0  0  0
    1.4289    0.8250    0.0000 C   0  0  0  0  0  0  0  0  0  0  0  0
    2.1434    1.2375    0.0000 C   0  0  0  0  0  0  0  0  0  0  0  0
    2.8579    0.8250    0.0000 O   0  0  0  0  0  0  0  0  0  0  0  0
    2.1434    2.0625    0.0000 C   0  0  1  0  0  0  0  0  0  0  0  0
    2.4956    2.7563    0.0000 C   0  0  0  0  0  0  0  0  0  0  0  0
    2.1209    3.4744    0.0000 C   0  0  0  0  0  0  0  0  0  0  0  0
    2.7050    4.1551    0.0000 C   0  0  0  0  0  0  0  0  0  0  0  0
    2.5224    3.5276    0.0000 C   0  0  0  0  0  0  0  0  0  0  0  0
    1.7700    2.7981    0.0000 C   0  0  2  0  0  0  0  0  0  0  0  0
    0.8886    3.0355    0.0000 C   0  0  0  0  0  0  0  0  0  0  0  0
    1.2717    3.6952    0.0000 C   0  0  0  0  0  0  0  0  0  0  0  0
    0.9542    4.4567    0.0000 C   0  0  0  0  0  0  0  0  0  0  0  0
    0.1360    4.5624    0.0000 C   0  0  0  0  0  0  0  0  0  0  0  0
    1.4289    0.0000    0.0000 C   0  0  0  0  0  0  0  0  0  0  0  0
    2.1434   -0.4125    0.0000 C   0  0  0  0  0  0  0  0  0  0  0  0
  1  2  1  0  0  0  0
  2  3  1  0  0  0  0
  3  4  4  0  0  0  0
  4  5  4  0  0  0  0
  5  6  4  0  0  0  0
  6  7  4  0  0  0  0
  7  8  4  0  0  0  0
  8  9  4  0  0  0  0
  9 10  4  0  0  0  0
 10 11  1  0  0  0  0
 11 12  1  0  0  0  0
 13 11  1  6  0  0  0
 13 14  1  0  0  0  0
 14 15  1  0  0  0  0
 15 16  1  0  0  0  0
 16 17  1  0  0  0  0
 17 18  1  0  0  0  0
 13 18  1  0  0  0  0
 18 19  1  1  0  0  0
 19 20  1  0  0  0  0
 15 20  1  0  0  0  0
 20 21  1  0  0  0  0
 21 22  2  0  0  0  0
 10 23  4  0  0  0  0
  6 23  4  0  0  0  0
 23 24  4  0  0  0  0
  3 24  4  0  0  0  0
M  END

> <ChembankId>
161

> <SMILES>
COc1ccc2nccc(C(O)[C@H]3CC4CC[C@@H]3CC4C=C)c2c1

> <InChI>
1/C21H25NO2/c1-3-13-10-15-5-4-14(13)11-18(15)21(23)17-8-9-22-20-7-6-16(24-2)12-19(17)20/h3,6-9,12-15,18,21,23H,1,4-5,10-11H2,2H3/t13-,14-,15-,18+,21-/m1/s1

$$$$
166
  Marvin  11101114192D          

 47 48  0  0  1  0            999 V2000
    5.4365  -13.4359    0.0000 C   0  0  0  0  0  0  0  0  0  0  0  0
    6.1510  -13.8484    0.0000 C   0  0  0  0  0  0  0  0  0  0  0  0
    6.8655  -13.4359    0.0000 C   0  0  1  0  0  0  0  0  0  0  0  0
    6.8655  -12.6109    0.0000 C   0  0  0  0  0  0  0  0  0  0  0  0
    7.5799  -13.8484    0.0000 C   0  0  0  0  0  0  0  0  0  0  0  0
    8.2944  -13.4359    0.0000 C   0  0  2  0  0  0  0  0  0  0  0  0
    8.2944  -12.6109    0.0000 C   0  0  0  0  0  0  0  0  0  0  0  0
    9.0089  -13.8484    0.0000 C   0  0  0  0  0  0  0  0  0  0  0  0
    9.7234  -13.4359    0.0000 C   0  0  2  0  0  0  0  0  0  0  0  0
    9.7234  -12.6109    0.0000 C   0  0  0  0  0  0  0  0  0  0  0  0
   10.4378  -13.8484    0.0000 C   0  0  0  0  0  0  0  0  0  0  0  0
   10.4378  -14.6734    0.0000 O   0  0  0  0  0  0  0  0  0  0  0  0
   11.1523  -13.4359    0.0000 C   0  0  0  0  0  0  0  0  0  0  0  0
   11.8668  -13.8484    0.0000 C   0  0  0  0  0  0  0  0  0  0  0  0
   11.8668  -14.6734    0.0000 O   0  0  0  0  0  0  0  0  0  0  0  0
   12.5812  -13.4359    0.0000 C   0  0  2  0  0  0  0  0  0  0  0  0
   12.5812  -12.6109    0.0000 C   0  0  0  0  0  0  0  0  0  0  0  0
   13.2957  -13.8484    0.0000 C   0  0  0  0  0  0  0  0  0  0  0  0
   14.0102  -13.4359    0.0000 C   0  0  2  0  0  0  0  0  0  0  0  0
   14.0102  -12.6109    0.0000 C   0  0  0  0  0  0  0  0  0  0  0  0
   14.7246  -13.8484    0.0000 C   0  0  0  0  0  0  0  0  0  0  0  0
   15.4391  -13.4359    0.0000 C   0  0  0  0  0  0  0  0  0  0  0  0
   16.1536  -13.8484    0.0000 C   0  0  0  0  0  0  0  0  0  0  0  0
   16.8681  -13.4359    0.0000 C   0  0  1  0  0  0  0  0  0  0  0  0
   16.8681  -12.6109    0.0000 C   0  0  0  0  0  0  0  0  0  0  0  0
   17.5825  -13.8484    0.0000 C   0  0  1  0  0  0  0  0  0  0  0  0
   17.5825  -14.6734    0.0000 O   0  0  0  0  0  0  0  0  0  0  0  0
   18.2970  -13.4359    0.0000 C   0  0  1  0  0  0  0  0  0  0  0  0
   19.0115  -13.8484    0.0000 C   0  0  0  0  0  0  0  0  0  0  0  0
   18.2970  -12.6109    0.0000 C   0  0  1  0  0  0  0  0  0  0  0  0
   17.5825  -12.1984    0.0000 O   0  0  0  0  0  0  0  0  0  0  0  0
   19.0115  -12.1984    0.0000 C   0  0  0  0  0  0  0  0  0  0  0  0
   19.0115  -11.3734    0.0000 C   0  0  2  0  0  0  0  0  0  0  0  0
   18.3440  -10.8885    0.0000 C   0  0  0  0  0  0  0  0  0  0  0  0
   18.5990  -10.1039    0.0000 C   0  0  0  0  0  0  0  0  0  0  0  0
   19.4240  -10.1039    0.0000 C   0  0  2  0  0  0  0  0  0  0  0  0
   19.3377   -9.2834    0.0000 C   0  0  0  0  0  0  0  0  0  0  0  0
   19.6789  -10.8885    0.0000 O   0  0  0  0  0  0  0  0  0  0  0  0
   20.2309   -9.9323    0.0000 C   0  0  1  0  0  0  0  0  0  0  0  0
   20.5665   -9.1787    0.0000 C   0  0  0  0  0  0  0  0  0  0  0  0
   21.3870   -9.2649    0.0000 C   0  0  0  0  0  0  0  0  0  0  0  0
   21.5585  -10.0719    0.0000 C   0  0  2  0  0  0  0  0  0  0  0  0
   22.3431   -9.8169    0.0000 C   0  0  0  0  0  0  0  0  0  0  0  0
   20.8440  -10.4844    0.0000 O   0  0  0  0  0  0  0  0  0  0  0  0
   21.8941  -10.8256    0.0000 C   0  0  1  0  0  0  0  0  0  0  0  0
   22.7145  -10.9118    0.0000 C   0  0  0  0  0  0  0  0  0  0  0  0
   21.4091  -11.4930    0.0000 O   0  0  0  0  0  0  0  0  0  0  0  0
  1  2  1  0  0  0  0
  2  3  1  0  0  0  0
  3  4  1  1  0  0  0
  3  5  1  0  0  0  0
  5  6  1  0  0  0  0
  6  7  1  6  0  0  0
  6  8  1  0  0  0  0
  8  9  1  0  0  0  0
  9 10  1  6  0  0  0
  9 11  1  0  0  0  0
 11 12  2  0  0  0  0
 11 13  1  0  0  0  0
 13 14  2  0  0  0  0
 14 15  1  0  0  0  0
 14 16  1  0  0  0  0
 16 17  1  6  0  0  0
 16 18  1  0  0  0  0
 18 19  1  0  0  0  0
 19 20  1  6  0  0  0
 19 21  1  0  0  0  0
 21 22  1  0  0  0  0
 22 23  2  0  0  0  0
 23 24  1  0  0  0  0
 24 25  1  1  0  0  0
 24 26  1  0  0  0  0
 26 27  1  6  0  0  0
 26 28  1  0  0  0  0
 28 29  1  6  0  0  0
 28 30  1  0  0  0  0
 30 31  1  1  0  0  0
 30 32  1  0  0  0  0
 33 32  1  6  0  0  0
 33 34  1  0  0  0  0
 34 35  1  0  0  0  0
 35 36  1  0  0  0  0
 36 37  1  6  0  0  0
 36 38  1  0  0  0  0
 33 38  1  0  0  0  0
 39 36  1  1  0  0  0
 39 40  1  0  0  0  0
 40 41  1  0  0  0  0
 41 42  1  0  0  0  0
 42 43  1  6  0  0  0
 42 44  1  0  0  0  0
 39 44  1  0  0  0  0
 42 45  1  0  0  0  0
 45 46  1  0  0  0  0
 45 47  1  1  0  0  0
M  END

> <ChembankId>
166

> <SMILES>
CC[C@@H](C)C[C@H](C)C[C@H](C)C(=O)/C=C(\O)/[C@H](C)C[C@H](C)C/C=C/[C@@H](C)[C@@H](O)[C@@H](C)[C@@H](O)C[C@@H]1CC[C@](C)(O1)[C@H]2CC[C@](C)(O2)[C@@H](C)O

> <InChI>
1/C40H72O7/c1-12-25(2)20-27(4)22-30(7)35(43)24-34(42)29(6)21-26(3)14-13-15-28(5)38(45)31(8)36(44)23-33-16-18-40(11,46-33)37-17-19-39(10,47-37)32(9)41/h13,15,24-33,36-38,41-42,44-45H,12,14,16-23H2,1-11H3/b15-13+,34-24-/t25-,26-,27+,28-,29+,30+,31+,32+,33+,36+,37+,38-,39+,40+/m1/s1

$$$$
191
  Marvin  11101114192D          

 23 24  0  0  0  0            999 V2000
    1.4289   -2.4750    0.0000 C   0  0  0  0  0  0  0  0  0  0  0  0
    1.4289   -1.6500    0.0000 C   0  0  0  0  0  0  0  0  0  0  0  0
    0.7145   -1.2375    0.0000 C   0  0  0  0  0  0  0  0  0  0  0  0
    0.7145   -0.4125    0.0000 C   0  0  0  0  0  0  0  0  0  0  0  0
    0.0000    0.0000    0.0000 C   0  0  0  0  0  0  0  0  0  0  0  0
   -0.7145   -0.4125    0.0000 O   0  0  0  0  0  0  0  0  0  0  0  0
    0.0000    0.8250    0.0000 C   0  0  0  0  0  0  0  0  0  0  0  0
    0.7145    1.2375    0.0000 C   0  0  0  0  0  0  0  0  0  0  0  0
    1.4289    0.8250    0.0000 C   0  0  0  0  0  0  0  0  0  0  0  0
    1.4289    0.0000    0.0000 C   0  0  0  0  0  0  0  0  0  0  0  0
    2.1434   -0.4125    0.0000 O   0  0  0  0  0  0  0  0  0  0  0  0
    2.8579    0.0000    0.0000 C   0  0  0  0  0  0  0  0  0  0  0  0
    3.5724   -0.4125    0.0000 C   0  0  0  0  0  0  0  0  0  0  0  0
    4.2868    0.0000    0.0000 C   0  0  0  0  0  0  0  0  0  0  0  0
    5.0013   -0.4125    0.0000 C   0  0  0  0  0  0  0  0  0  0  0  0
    5.7158    0.0000    0.0000 C   0  0  0  0  0  0  0  0  0  0  0  0
    5.8020    0.8205    0.0000 N   0  0  0  0  0  0  0  0  0  0  0  0
    6.6090    0.9920    0.0000 N   0  0  0  0  0  0  0  0  0  0  0  0
    7.0215    0.2775    0.0000 N   0  0  0  0  0  0  0  0  0  0  0  0
    6.4694   -0.3356    0.0000 N   0  0  0  0  0  0  0  0  0  0  0  0
   -0.7145    1.2375    0.0000 C   0  0  0  0  0  0  0  0  0  0  0  0
   -1.4289    0.8250    0.0000 O   0  0  0  0  0  0  0  0  0  0  0  0
   -0.7145    2.0625    0.0000 C   0  0  0  0  0  0  0  0  0  0  0  0
  1  2  1  0  0  0  0
  2  3  1  0  0  0  0
  3  4  1  0  0  0  0
  4  5  4  0  0  0  0
  5  6  1  0  0  0  0
  5  7  4  0  0  0  0
  7  8  4  0  0  0  0
  8  9  4  0  0  0  0
  9 10  4  0  0  0  0
  4 10  4  0  0  0  0
 10 11  1  0  0  0  0
 11 12  1  0  0  0  0
 12 13  1  0  0  0  0
 13 14  1  0  0  0  0
 14 15  1  0  0  0  0
 15 16  1  0  0  0  0
 16 17  4  0  0  0  0
 17 18  4  0  0  0  0
 18 19  4  0  0  0  0
 19 20  4  0  0  0  0
 16 20  4  0  0  0  0
  7 21  1  0  0  0  0
 21 22  2  0  0  0  0
 21 23  1  0  0  0  0
M  STY  1   1 DAT
M  SAL   1  1  20
M  SDT   1 MRV_IMPLICIT_H                                        
M  SDD   1     0.0000    0.0000    DR    ALL  0       0  
M  SED   1 IMPL_H1
M  END

> <ChembankId>
191

> <SMILES>
CCCc1c(O)c(ccc1OCCCCc2nnn[nH]2)C(=O)C

> <InChI>
1/C16H22N4O3/c1-3-6-13-14(9-8-12(11(2)21)16(13)22)23-10-5-4-7-15-17-19-20-18-15/h8-9,22H,3-7,10H2,1-2H3,(H,17,18,19,20)

$$$$
194
  Marvin  11101114192D          

 46 48  0  0  1  0            999 V2000
    4.7706   -3.5805    0.0000 C   0  0  0  0  0  0  0  0  0  0  0  0
    5.4851   -3.1680    0.0000 C   0  0  0  0  0  0  0  0  0  0  0  0
    6.1996   -3.5805    0.0000 C   0  0  0  0  0  0  0  0  0  0  0  0
    6.9140   -3.1680    0.0000 C   0  0  0  0  0  0  0  0  0  0  0  0
    7.6285   -3.5805    0.0000 C   0  0  0  0  0  0  0  0  0  0  0  0
    8.3430   -3.1680    0.0000 C   0  0  0  0  0  0  0  0  0  0  0  0
    9.0575   -3.5805    0.0000 C   0  0  0  0  0  0  0  0  0  0  0  0
    9.7719   -3.1680    0.0000 C   0  0  0  0  0  0  0  0  0  0  0  0
    9.7719   -2.3430    0.0000 O   0  0  0  0  0  0  0  0  0  0  0  0
   10.4864   -3.5805    0.0000 O   0  0  0  0  0  0  0  0  0  0  0  0
   11.2009   -3.1680    0.0000 C   0  0  2  0  0  0  0  0  0  0  0  0
   11.2871   -2.3476    0.0000 C   0  0  1  0  0  0  0  0  0  0  0  0
   10.6740   -1.7955    0.0000 O   0  0  0  0  0  0  0  0  0  0  0  0
   10.8455   -0.9886    0.0000 C   0  0  0  0  0  0  0  0  0  0  0  0
   11.6302   -0.7336    0.0000 O   0  0  0  0  0  0  0  0  0  0  0  0
   10.2324   -0.4365    0.0000 C   0  0  0  0  0  0  0  0  0  0  0  0
    9.4478   -0.6915    0.0000 C   0  0  0  0  0  0  0  0  0  0  0  0
    9.2763   -1.4984    0.0000 C   0  0  0  0  0  0  0  0  0  0  0  0
   10.4040    0.3704    0.0000 C   0  0  0  0  0  0  0  0  0  0  0  0
   12.0941   -2.1760    0.0000 C   0  0  0  0  0  0  0  0  0  0  0  0
   12.5066   -2.8905    0.0000 C   0  0  0  0  0  0  0  0  0  0  0  0
   13.3301   -2.9398    0.0000 C   0  0  2  0  0  0  0  0  0  0  0  0
   13.8249   -2.2797    0.0000 O   0  0  0  0  0  0  0  0  0  0  0  0
   14.6057   -2.5464    0.0000 C   0  0  0  0  0  0  0  0  0  0  0  0
   15.2803   -2.0715    0.0000 O   0  0  0  0  0  0  0  0  0  0  0  0
   14.5933   -3.3713    0.0000 C   0  0  1  0  0  0  0  0  0  0  0  0
   15.4150   -3.2973    0.0000 C   0  0  0  0  0  0  0  0  0  0  0  0
   14.7528   -4.1807    0.0000 O   0  0  0  0  0  0  0  0  0  0  0  0
   13.8050   -3.6145    0.0000 C   0  0  2  0  0  0  0  0  0  0  0  0
   14.3927   -4.1934    0.0000 O   0  0  0  0  0  0  0  0  0  0  0  0
   13.5736   -4.4064    0.0000 C   0  0  2  0  0  0  0  0  0  0  0  0
   12.8103   -4.7192    0.0000 C   0  0  0  0  0  0  0  0  0  0  0  0
   12.0897   -4.3175    0.0000 C   0  0  2  0  0  0  0  0  0  0  0  0
   11.8583   -5.1094    0.0000 C   0  0  0  0  0  0  0  0  0  0  0  0
   11.2662   -4.2681    0.0000 O   0  0  0  0  0  0  0  0  0  0  0  0
   10.8117   -4.9566    0.0000 C   0  0  0  0  0  0  0  0  0  0  0  0
   11.1807   -5.6945    0.0000 O   0  0  0  0  0  0  0  0  0  0  0  0
    9.9882   -4.9073    0.0000 C   0  0  0  0  0  0  0  0  0  0  0  0
   11.9545   -3.5036    0.0000 C   0  0  1  0  0  0  0  0  0  0  0  0
   14.1867   -4.9584    0.0000 O   0  0  0  0  0  0  0  0  0  0  0  0
   14.0152   -5.7654    0.0000 C   0  0  0  0  0  0  0  0  0  0  0  0
   13.2306   -6.0203    0.0000 O   0  0  0  0  0  0  0  0  0  0  0  0
   14.6283   -6.3174    0.0000 C   0  0  0  0  0  0  0  0  0  0  0  0
   14.4568   -7.1244    0.0000 C   0  0  0  0  0  0  0  0  0  0  0  0
   13.6721   -7.3793    0.0000 C   0  0  0  0  0  0  0  0  0  0  0  0
   12.4296   -1.4224    0.0000 C   0  0  0  0  0  0  0  0  0  0  0  0
  1  2  1  0  0  0  0
  2  3  1  0  0  0  0
  3  4  1  0  0  0  0
  4  5  1  0  0  0  0
  5  6  1  0  0  0  0
  6  7  1  0  0  0  0
  7  8  1  0  0  0  0
  8  9  2  0  0  0  0
  8 10  1  0  0  0  0
 11 10  1  6  0  0  0
 11 12  1  0  0  0  0
 12 13  1  1  0  0  0
 13 14  1  0  0  0  0
 14 15  2  0  0  0  0
 14 16  1  0  0  0  0
 16 17  2  0  0  0  0
 17 18  1  0  0  0  0
 16 19  1  0  0  0  0
 12 20  1  0  0  0  0
 20 21  2  0  0  0  0
 22 21  1  6  0  0  0
 22 23  1  0  0  0  0
 23 24  1  0  0  0  0
 24 25  2  0  0  0  0
 24 26  1  0  0  0  0
 26 27  1  6  0  0  0
 26 28  1  1  0  0  0
 26 29  1  0  0  0  0
 22 29  1  0  0  0  0
 29 30  1  6  0  0  0
 29 31  1  0  0  0  0
 31 32  1  0  0  0  0
 32 33  1  0  0  0  0
 33 34  1  1  0  0  0
 33 35  1  6  0  0  0
 35 36  1  0  0  0  0
 36 37  2  0  0  0  0
 36 38  1  0  0  0  0
 33 39  1  0  0  0  0
 11 39  1  0  0  0  0
 39 21  1  1  0  0  0
 31 40  1  1  0  0  0
 40 41  1  0  0  0  0
 41 42  2  0  0  0  0
 41 43  1  0  0  0  0
 43 44  1  0  0  0  0
 44 45  1  0  0  0  0
 20 46  1  0  0  0  0
M  END

> <ChembankId>
194

> <SMILES>
CCCCCCCC(=O)O[C@@H]1[C@@H](OC(=O)/C(=C\C)/C)C(=C2[C@@H]3OC(=O)[C@@](C)(O)[C@@]3(O)[C@H](C[C@](C)(OC(=O)C)[C@@H]12)OC(=O)CCC)C

> <InChI>
1/C34H50O12/c1-9-12-13-14-15-17-24(37)43-28-26-25(20(5)27(28)44-30(38)19(4)11-3)29-34(41,33(8,40)31(39)45-29)22(42-23(36)16-10-2)18-32(26,7)46-21(6)35/h11,22,26-29,40-41H,9-10,12-18H2,1-8H3

$$$$
198
  Marvin  11101114192D          

 18 18  0  0  0  0            999 V2000
   -3.5724   -3.7125    0.0000 C   0  0  0  0  0  0  0  0  0  0  0  0
   -2.8579   -4.1250    0.0000 C   0  0  0  0  0  0  0  0  0  0  0  0
   -2.1434   -3.7125    0.0000 C   0  0  0  0  0  0  0  0  0  0  0  0
   -1.4289   -4.1250    0.0000 C   0  0  0  0  0  0  0  0  0  0  0  0
   -0.7145   -3.7125    0.0000 N   0  0  0  0  0  0  0  0  0  0  0  0
    0.0000   -4.1250    0.0000 C   0  0  0  0  0  0  0  0  0  0  0  0
    0.0000   -4.9500    0.0000 O   0  0  0  0  0  0  0  0  0  0  0  0
    0.7145   -3.7125    0.0000 N   0  0  0  0  0  0  0  0  0  0  0  0
    1.4289   -4.1250    0.0000 S   0  0  0  0  0  0  0  0  0  0  0  0
    1.0164   -4.8395    0.0000 O   0  0  0  0  0  0  0  0  0  0  0  0
    1.8414   -3.4105    0.0000 O   0  0  0  0  0  0  0  0  0  0  0  0
    2.1434   -4.5375    0.0000 C   0  0  0  0  0  0  0  0  0  0  0  0
    2.8579   -4.1250    0.0000 C   0  0  0  0  0  0  0  0  0  0  0  0
    3.5724   -4.5375    0.0000 C   0  0  0  0  0  0  0  0  0  0  0  0
    3.5724   -5.3625    0.0000 C   0  0  0  0  0  0  0  0  0  0  0  0
    4.2868   -5.7750    0.0000 C   0  0  0  0  0  0  0  0  0  0  0  0
    2.8579   -5.7750    0.0000 C   0  0  0  0  0  0  0  0  0  0  0  0
    2.1434   -5.3625    0.0000 C   0  0  0  0  0  0  0  0  0  0  0  0
  1  2  1  0  0  0  0
  2  3  1  0  0  0  0
  3  4  1  0  0  0  0
  4  5  1  0  0  0  0
  5  6  1  0  0  0  0
  6  7  2  0  0  0  0
  6  8  1  0  0  0  0
  8  9  1  0  0  0  0
  9 10  2  0  0  0  0
  9 11  2  0  0  0  0
  9 12  1  0  0  0  0
 12 13  4  0  0  0  0
 13 14  4  0  0  0  0
 14 15  4  0  0  0  0
 15 16  1  0  0  0  0
 15 17  4  0  0  0  0
 17 18  4  0  0  0  0
 12 18  4  0  0  0  0
M  END

> <ChembankId>
198

> <SMILES>
CCCCNC(=O)NS(=O)(=O)c1ccc(C)cc1

> <InChI>
1/C12H18N2O3S/c1-3-4-9-13-12(15)14-18(16,17)11-7-5-10(2)6-8-11/h5-8H,3-4,9H2,1-2H3,(H2,13,14,15)

$$$$
220
  Marvin  11101114192D          

 25 25  0  0  1  0            999 V2000
   -4.2532   -5.2103    0.0000 C   0  0  0  0  0  0  0  0  0  0  0  0
   -3.4686   -4.9553    0.0000 C   0  0  0  0  0  0  0  0  0  0  0  0
   -3.2970   -4.1484    0.0000 C   0  0  0  0  0  0  0  0  0  0  0  0
   -2.5124   -3.8934    0.0000 C   0  0  0  0  0  0  0  0  0  0  0  0
   -2.3409   -3.0864    0.0000 C   0  0  0  0  0  0  0  0  0  0  0  0
   -1.5563   -2.8315    0.0000 C   0  0  2  0  0  0  0  0  0  0  0  0
   -0.9432   -3.3835    0.0000 O   0  0  0  0  0  0  0  0  0  0  0  0
   -1.3847   -2.0245    0.0000 C   0  0  0  0  0  0  0  0  0  0  0  0
   -0.6001   -1.7696    0.0000 C   0  0  0  0  0  0  0  0  0  0  0  0
   -0.4286   -0.9626    0.0000 C   0  0  1  0  0  0  0  0  0  0  0  0
   -0.9806   -0.3495    0.0000 C   0  0  2  0  0  0  0  0  0  0  0  0
   -1.8011   -0.4358    0.0000 O   0  0  0  0  0  0  0  0  0  0  0  0
   -0.5681    0.3649    0.0000 C   0  0  0  0  0  0  0  0  0  0  0  0
    0.2389    0.1934    0.0000 C   0  0  0  0  0  0  0  0  0  0  0  0
    0.8519    0.7455    0.0000 O   0  0  0  0  0  0  0  0  0  0  0  0
    0.3251   -0.6271    0.0000 C   0  0  2  0  0  0  0  0  0  0  0  0
    1.0396   -1.0396    0.0000 C   0  0  0  0  0  0  0  0  0  0  0  0
    1.7540   -0.6271    0.0000 C   0  0  0  0  0  0  0  0  0  0  0  0
    2.4685   -1.0396    0.0000 C   0  0  0  0  0  0  0  0  0  0  0  0
    3.1830   -0.6271    0.0000 C   0  0  0  0  0  0  0  0  0  0  0  0
    3.8974   -1.0396    0.0000 C   0  0  0  0  0  0  0  0  0  0  0  0
    4.6119   -0.6271    0.0000 C   0  0  0  0  0  0  0  0  0  0  0  0
    5.3264   -1.0396    0.0000 C   0  0  0  0  0  0  0  0  0  0  0  0
    6.0409   -0.6271    0.0000 O   0  0  0  0  0  0  0  0  0  0  0  0
    5.3264   -1.8646    0.0000 O   0  0  0  0  0  0  0  0  0  0  0  0
  1  2  1  0  0  0  0
  2  3  1  0  0  0  0
  3  4  1  0  0  0  0
  4  5  1  0  0  0  0
  5  6  1  0  0  0  0
  6  7  1  1  0  0  0
  6  8  1  0  0  0  0
  8  9  2  0  0  0  0
 10  9  1  1  0  0  0
 10 11  1  0  0  0  0
 11 12  1  6  0  0  0
 11 13  1  0  0  0  0
 13 14  1  0  0  0  0
 14 15  2  0  0  0  0
 14 16  1  0  0  0  0
 10 16  1  0  0  0  0
 16 17  1  6  0  0  0
 17 18  1  0  0  0  0
 18 19  1  0  0  0  0
 19 20  1  0  0  0  0
 20 21  1  0  0  0  0
 21 22  1  0  0  0  0
 22 23  1  0  0  0  0
 23 24  2  0  0  0  0
 23 25  1  0  0  0  0
M  END

> <ChembankId>
220

> <SMILES>
CCCCC[C@H](O)/C=C/[C@H]1[C@H](O)CC(=O)[C@@H]1CCCCCCC(=O)O

> <InChI>
1/C20H34O5/c1-2-3-6-9-15(21)12-13-17-16(18(22)14-19(17)23)10-7-4-5-8-11-20(24)25/h12-13,15-17,19,21,23H,2-11,14H2,1H3,(H,24,25)

$$$$
222
  Marvin  11101114192D          

 25 25  0  0  1  0            999 V2000
   -5.6453   -0.5205    0.0000 C   0  0  0  0  0  0  0  0  0  0  0  0
   -4.9308   -0.9330    0.0000 C   0  0  0  0  0  0  0  0  0  0  0  0
   -4.2163   -0.5205    0.0000 C   0  0  0  0  0  0  0  0  0  0  0  0
   -3.5018   -0.9330    0.0000 C   0  0  0  0  0  0  0  0  0  0  0  0
   -2.7874   -0.5205    0.0000 C   0  0  0  0  0  0  0  0  0  0  0  0
   -2.0729   -0.9330    0.0000 C   0  0  2  0  0  0  0  0  0  0  0  0
   -2.0729   -1.7580    0.0000 O   0  0  0  0  0  0  0  0  0  0  0  0
   -1.3584   -0.5205    0.0000 C   0  0  0  0  0  0  0  0  0  0  0  0
   -0.6440   -0.9330    0.0000 C   0  0  0  0  0  0  0  0  0  0  0  0
    0.0705   -0.5205    0.0000 C   0  0  1  0  0  0  0  0  0  0  0  0
    0.1568    0.3000    0.0000 C   0  0  2  0  0  0  0  0  0  0  0  0
   -0.4563    0.8520    0.0000 O   0  0  0  0  0  0  0  0  0  0  0  0
    0.9637    0.4715    0.0000 C   0  0  0  0  0  0  0  0  0  0  0  0
    1.3762   -0.2430    0.0000 C   0  0  0  0  0  0  0  0  0  0  0  0
    2.1967   -0.3292    0.0000 O   0  0  0  0  0  0  0  0  0  0  0  0
    0.8242   -0.8561    0.0000 C   0  0  2  0  0  0  0  0  0  0  0  0
    0.9957   -1.6630    0.0000 C   0  0  0  0  0  0  0  0  0  0  0  0
    0.3826   -2.2151    0.0000 C   0  0  0  0  0  0  0  0  0  0  0  0
    0.5542   -3.0221    0.0000 C   0  0  0  0  0  0  0  0  0  0  0  0
    1.3388   -3.2770    0.0000 C   0  0  0  0  0  0  0  0  0  0  0  0
    1.5103   -4.0840    0.0000 C   0  0  0  0  0  0  0  0  0  0  0  0
    2.2949   -4.3389    0.0000 C   0  0  0  0  0  0  0  0  0  0  0  0
    2.4664   -5.1459    0.0000 C   0  0  0  0  0  0  0  0  0  0  0  0
    3.2511   -5.4008    0.0000 O   0  0  0  0  0  0  0  0  0  0  0  0
    1.8534   -5.6979    0.0000 O   0  0  0  0  0  0  0  0  0  0  0  0
  1  2  1  0  0  0  0
  2  3  1  0  0  0  0
  3  4  1  0  0  0  0
  4  5  1  0  0  0  0
  5  6  1  0  0  0  0
  6  7  1  1  0  0  0
  6  8  1  0  0  0  0
  8  9  2  0  0  0  0
 10  9  1  1  0  0  0
 10 11  1  0  0  0  0
 11 12  1  6  0  0  0
 11 13  1  0  0  0  0
 13 14  1  0  0  0  0
 14 15  2  0  0  0  0
 14 16  1  0  0  0  0
 10 16  1  0  0  0  0
 16 17  1  6  0  0  0
 17 18  1  0  0  0  0
 18 19  2  0  0  0  0
 19 20  1  0  0  0  0
 20 21  1  0  0  0  0
 21 22  1  0  0  0  0
 22 23  1  0  0  0  0
 23 24  2  0  0  0  0
 23 25  1  0  0  0  0
M  END

> <ChembankId>
222

> <SMILES>
CCCCC[C@H](O)/C=C/[C@H]1[C@H](O)CC(=O)[C@@H]1C/C=C\CCCC(=O)O

> <InChI>
1/C20H32O5/c1-2-3-6-9-15(21)12-13-17-16(18(22)14-19(17)23)10-7-4-5-8-11-20(24)25/h4,7,12-13,15-17,19,21,23H,2-3,5-6,8-11,14H2,1H3,(H,24,25)

$$$$
224
  Marvin  11101114192D          

 25 25  0  0  1  0            999 V2000
   -5.6453   -0.5205    0.0000 C   0  0  0  0  0  0  0  0  0  0  0  0
   -4.9308   -0.9330    0.0000 C   0  0  0  0  0  0  0  0  0  0  0  0
   -4.2163   -0.5205    0.0000 C   0  0  0  0  0  0  0  0  0  0  0  0
   -3.5018   -0.9330    0.0000 C   0  0  0  0  0  0  0  0  0  0  0  0
   -2.7874   -0.5205    0.0000 C   0  0  0  0  0  0  0  0  0  0  0  0
   -2.0729   -0.9330    0.0000 C   0  0  2  0  0  0  0  0  0  0  0  0
   -2.0729   -1.7580    0.0000 O   0  0  0  0  0  0  0  0  0  0  0  0
   -1.3584   -0.5205    0.0000 C   0  0  0  0  0  0  0  0  0  0  0  0
   -0.6440   -0.9330    0.0000 C   0  0  0  0  0  0  0  0  0  0  0  0
    0.0705   -0.5205    0.0000 C   0  0  1  0  0  0  0  0  0  0  0  0
    0.1568    0.3000    0.0000 C   0  0  2  0  0  0  0  0  0  0  0  0
   -0.4563    0.8520    0.0000 O   0  0  0  0  0  0  0  0  0  0  0  0
    0.9637    0.4715    0.0000 C   0  0  0  0  0  0  0  0  0  0  0  0
    1.3762   -0.2430    0.0000 C   0  0  2  0  0  0  0  0  0  0  0  0
    2.1967   -0.3292    0.0000 O   0  0  0  0  0  0  0  0  0  0  0  0
    0.8242   -0.8561    0.0000 C   0  0  2  0  0  0  0  0  0  0  0  0
    0.9957   -1.6630    0.0000 C   0  0  0  0  0  0  0  0  0  0  0  0
    0.3826   -2.2151    0.0000 C   0  0  0  0  0  0  0  0  0  0  0  0
    0.5542   -3.0221    0.0000 C   0  0  0  0  0  0  0  0  0  0  0  0
    1.3388   -3.2770    0.0000 C   0  0  0  0  0  0  0  0  0  0  0  0
    1.5103   -4.0840    0.0000 C   0  0  0  0  0  0  0  0  0  0  0  0
    2.2949   -4.3389    0.0000 C   0  0  0  0  0  0  0  0  0  0  0  0
    2.4664   -5.1459    0.0000 C   0  0  0  0  0  0  0  0  0  0  0  0
    3.2511   -5.4008    0.0000 O   0  0  0  0  0  0  0  0  0  0  0  0
    1.8534   -5.6979    0.0000 O   0  0  0  0  0  0  0  0  0  0  0  0
  1  2  1  0  0  0  0
  2  3  1  0  0  0  0
  3  4  1  0  0  0  0
  4  5  1  0  0  0  0
  5  6  1  0  0  0  0
  6  7  1  1  0  0  0
  6  8  1  0  0  0  0
  8  9  2  0  0  0  0
 10  9  1  1  0  0  0
 10 11  1  0  0  0  0
 11 12  1  6  0  0  0
 11 13  1  0  0  0  0
 13 14  1  0  0  0  0
 14 15  1  6  0  0  0
 14 16  1  0  0  0  0
 10 16  1  0  0  0  0
 16 17  1  6  0  0  0
 17 18  1  0  0  0  0
 18 19  2  0  0  0  0
 19 20  1  0  0  0  0
 20 21  1  0  0  0  0
 21 22  1  0  0  0  0
 22 23  1  0  0  0  0
 23 24  2  0  0  0  0
 23 25  1  0  0  0  0
M  END

> <ChembankId>
224

> <SMILES>
CCCCC[C@H](O)/C=C/[C@H]1[C@H](O)C[C@H](O)[C@@H]1C/C=C\CCCC(=O)O

> <InChI>
1/C20H34O5/c1-2-3-6-9-15(21)12-13-17-16(18(22)14-19(17)23)10-7-4-5-8-11-20(24)25/h4,7,12-13,15-19,21-23H,2-3,5-6,8-11,14H2,1H3,(H,24,25)

$$$$
225
  Marvin  11101114192D          

 22 21  0  0  0  0            999 V2000
    1.9520    8.5520    0.0000 C   0  0  0  0  0  0  0  0  0  0  0  0
    1.2375    8.1395    0.0000 C   0  0  0  0  0  0  0  0  0  0  0  0
    1.2375    7.3145    0.0000 C   0  0  0  0  0  0  0  0  0  0  0  0
    0.5230    6.9020    0.0000 C   0  0  0  0  0  0  0  0  0  0  0  0
    0.5230    6.0770    0.0000 C   0  0  0  0  0  0  0  0  0  0  0  0
   -0.1914    5.6645    0.0000 C   0  0  0  0  0  0  0  0  0  0  0  0
   -0.1914    4.8395    0.0000 C   0  0  0  0  0  0  0  0  0  0  0  0
    0.5230    4.4270    0.0000 C   0  0  0  0  0  0  0  0  0  0  0  0
    0.5230    3.6020    0.0000 C   0  0  0  0  0  0  0  0  0  0  0  0
   -0.1914    3.1895    0.0000 C   0  0  0  0  0  0  0  0  0  0  0  0
   -0.9059    3.6020    0.0000 C   0  0  0  0  0  0  0  0  0  0  0  0
   -1.6204    3.1895    0.0000 C   0  0  0  0  0  0  0  0  0  0  0  0
   -1.6204    2.3645    0.0000 C   0  0  0  0  0  0  0  0  0  0  0  0
   -0.9059    1.9520    0.0000 C   0  0  0  0  0  0  0  0  0  0  0  0
   -0.9059    1.1270    0.0000 C   0  0  0  0  0  0  0  0  0  0  0  0
   -0.1914    0.7145    0.0000 C   0  0  0  0  0  0  0  0  0  0  0  0
    0.5230    1.1270    0.0000 C   0  0  0  0  0  0  0  0  0  0  0  0
    1.2375    0.7145    0.0000 C   0  0  0  0  0  0  0  0  0  0  0  0
    1.9520    1.1270    0.0000 C   0  0  0  0  0  0  0  0  0  0  0  0
    2.6664    0.7145    0.0000 C   0  0  0  0  0  0  0  0  0  0  0  0
    3.3809    1.1270    0.0000 O   0  0  0  0  0  0  0  0  0  0  0  0
    2.6664   -0.1105    0.0000 O   0  0  0  0  0  0  0  0  0  0  0  0
  1  2  1  0  0  0  0
  2  3  1  0  0  0  0
  3  4  1  0  0  0  0
  4  5  1  0  0  0  0
  5  6  1  0  0  0  0
  6  7  2  0  0  0  0
  7  8  1  0  0  0  0
  8  9  1  0  0  0  0
  9 10  2  0  0  0  0
 10 11  1  0  0  0  0
 11 12  1  0  0  0  0
 12 13  2  0  0  0  0
 13 14  1  0  0  0  0
 14 15  1  0  0  0  0
 15 16  2  0  0  0  0
 16 17  1  0  0  0  0
 17 18  1  0  0  0  0
 18 19  1  0  0  0  0
 19 20  1  0  0  0  0
 20 21  2  0  0  0  0
 20 22  1  0  0  0  0
M  END

> <ChembankId>
225

> <SMILES>
CCCCC/C=C\C/C=C\C/C=C\C/C=C\CCCC(=O)O

> <InChI>
1/C20H32O2/c1-2-3-4-5-6-7-8-9-10-11-12-13-14-15-16-17-18-19-20(21)22/h6-7,9-10,12-13,15-16H,2-5,8,11,14,17-19H2,1H3,(H,21,22)

$$$$
3584
  Marvin  11101114192D          

 39 43  0  0  1  0            999 V2000
    2.1434   -1.2375    0.0000 C   0  0  0  0  0  0  0  0  0  0  0  0
    2.8579   -1.6500    0.0000 O   0  0  0  0  0  0  0  0  0  0  0  0
    2.8579   -2.4750    0.0000 C   0  0  0  0  0  0  0  0  0  0  0  0
    2.1434   -2.8875    0.0000 C   0  0  0  0  0  0  0  0  0  0  0  0
    2.1434   -3.7125    0.0000 C   0  0  0  0  0  0  0  0  0  0  0  0
    2.8579   -4.1250    0.0000 C   0  0  0  0  0  0  0  0  0  0  0  0
    3.5724   -3.7125    0.0000 C   0  0  0  0  0  0  0  0  0  0  0  0
    4.2868   -4.1250    0.0000 C   0  0  0  0  0  0  0  0  0  0  0  0
    4.2868   -4.9500    0.0000 O   0  0  0  0  0  0  0  0  0  0  0  0
    5.0013   -3.7125    0.0000 C   0  0  0  0  0  0  0  0  0  0  0  0
    5.0013   -2.8875    0.0000 C   0  0  0  0  0  0  0  0  0  0  0  0
    5.7158   -2.4750    0.0000 C   0  0  0  0  0  0  0  0  0  0  0  0
    6.4302   -2.8875    0.0000 C   0  0  0  0  0  0  0  0  0  0  0  0
    7.1447   -2.4750    0.0000 C   0  0  2  0  0  0  0  0  0  0  0  0
    7.8592   -2.8875    0.0000 C   0  0  0  0  0  0  0  0  0  0  0  0
    7.8592   -3.7125    0.0000 C   0  0  1  0  0  0  0  0  0  0  0  0
    8.6716   -3.5692    0.0000 O   0  0  0  0  0  0  0  0  0  0  0  0
    7.1447   -4.1250    0.0000 C   0  0  0  0  0  0  0  0  0  0  0  0
    6.4302   -3.7125    0.0000 C   0  0  0  0  0  0  0  0  0  0  0  0
    5.7158   -4.1250    0.0000 C   0  0  0  0  0  0  0  0  0  0  0  0
    5.7158   -4.9500    0.0000 O   0  0  0  0  0  0  0  0  0  0  0  0
    8.1413   -4.4877    0.0000 C   0  0  0  0  0  0  0  0  0  0  0  0
    7.6110   -5.1197    0.0000 O   0  0  0  0  0  0  0  0  0  0  0  0
    8.9538   -4.6310    0.0000 C   0  0  0  0  0  0  0  0  0  0  0  0
    9.2360   -5.4063    0.0000 O   0  0  0  0  0  0  0  0  0  0  0  0
    7.1447   -1.6500    0.0000 O   0  0  0  0  0  0  0  0  0  0  0  0
    7.8592   -1.2375    0.0000 C   0  0  2  0  0  0  0  0  0  0  0  0
    7.8592   -0.4125    0.0000 C   0  0  0  0  0  0  0  0  0  0  0  0
    8.5737   -0.0000    0.0000 C   0  0  0  0  0  0  0  0  0  0  0  0
    8.5737    0.8250    0.0000 N   0  0  0  0  0  0  0  0  0  0  0  0
    9.2881   -0.4125    0.0000 C   0  0  2  0  0  0  0  0  0  0  0  0
   10.0026   -0.0000    0.0000 O   0  0  0  0  0  0  0  0  0  0  0  0
    9.2881   -1.2375    0.0000 C   0  0  0  0  0  0  0  0  0  0  0  0
   10.0026   -1.6500    0.0000 C   0  0  0  0  0  0  0  0  0  0  0  0
    8.5737   -1.6500    0.0000 O   0  0  0  0  0  0  0  0  0  0  0  0
    5.7158   -1.6500    0.0000 O   0  0  0  0  0  0  0  0  0  0  0  0
    4.2868   -2.4750    0.0000 C   0  0  0  0  0  0  0  0  0  0  0  0
    4.2868   -1.6500    0.0000 O   0  0  0  0  0  0  0  0  0  0  0  0
    3.5724   -2.8875    0.0000 C   0  0  0  0  0  0  0  0  0  0  0  0
  1  2  1  0  0  0  0
  2  3  1  0  0  0  0
  3  4  4  0  0  0  0
  4  5  4  0  0  0  0
  5  6  4  0  0  0  0
  6  7  4  0  0  0  0
  7  8  1  0  0  0  0
  8  9  2  0  0  0  0
  8 10  1  0  0  0  0
 10 11  1  0  0  0  0
 11 12  1  0  0  0  0
 12 13  2  0  0  0  0
 13 14  1  0  0  0  0
 14 15  1  0  0  0  0
 15 16  1  0  0  0  0
 16 17  1  1  0  0  0
 16 18  1  0  0  0  0
 18 19  1  0  0  0  0
 13 19  1  0  0  0  0
 19 20  2  0  0  0  0
 10 20  1  0  0  0  0
 20 21  1  0  0  0  0
 16 22  1  6  0  0  0
 22 23  2  0  0  0  0
 22 24  1  0  0  0  0
 24 25  1  0  0  0  0
 14 26  1  1  0  0  0
 27 26  1  6  0  0  0
 27 28  1  0  0  0  0
 28 29  1  0  0  0  0
 29 30  1  0  0  0  0
 29 31  1  0  0  0  0
 31 32  1  6  0  0  0
 31 33  1  0  0  0  0
 33 34  1  0  0  0  0
 33 35  1  0  0  0  0
 27 35  1  0  0  0  0
 12 36  1  0  0  0  0
 11 37  1  0  0  0  0
 37 38  2  0  0  0  0
 37 39  1  0  0  0  0
  3 39  4  0  0  0  0
  7 39  4  0  0  0  0
M  END

> <ChembankId>
3584

> <SMILES>
COc1cccc2C(=O)C3C(C(=C4[C@H](C[C@@](O)(CC4=C3O)C(=O)CO)O[C@@H]5CC(N)[C@H](O)C(C)O5)O)C(=O)c12

> <InChI>
1/C27H31NO11/c1-10-22(31)13(28)6-17(38-10)39-15-8-27(36,16(30)9-29)7-12-19(15)26(35)21-20(24(12)33)23(32)11-4-3-5-14(37-2)18(11)25(21)34/h3-5,10,13,15,17,20-22,29,31,33,35-36H,6-9,28H2,1-2H3/t10-,13-,15-,17-,20+,21+,22+,27+/m1/s1

$$$$
677
  Marvin  11101114192D          

 18 19  0  0  1  0            999 V2000
    0.7145   -1.2375    0.0000 C   0  0  0  0  0  0  0  0  0  0  0  0
    1.4289   -1.6500    0.0000 C   0  0  1  0  0  0  0  0  0  0  0  0
    2.1434   -1.2375    0.0000 N   0  0  0  0  0  0  0  0  0  0  0  0
    1.4289   -2.4750    0.0000 C   0  0  1  0  0  0  0  0  0  0  0  0
    2.1434   -2.8875    0.0000 C   0  0  0  0  0  0  0  0  0  0  0  0
    2.1434   -3.7125    0.0000 C   0  0  0  0  0  0  0  0  0  0  0  0
    1.4289   -4.1250    0.0000 C   0  0  1  0  0  0  0  0  0  0  0  0
    0.7145   -3.7125    0.0000 C   0  0  0  0  0  0  0  0  0  0  0  0
    0.7145   -2.8875    0.0000 C   0  0  0  0  0  0  0  0  0  0  0  0
    1.4289   -4.9500    0.0000 C   0  0  0  0  0  0  0  0  0  0  0  0
    0.7145   -5.3625    0.0000 O   0  0  0  0  0  0  0  0  0  0  0  0
    2.1434   -5.3625    0.0000 N   0  0  0  0  0  0  0  0  0  0  0  0
    2.1434   -6.1875    0.0000 C   0  0  0  0  0  0  0  0  0  0  0  0
    2.8579   -6.6000    0.0000 C   0  0  0  0  0  0  0  0  0  0  0  0
    2.8579   -7.4250    0.0000 C   0  0  0  0  0  0  0  0  0  0  0  0
    2.1434   -7.8375    0.0000 N   0  0  0  0  0  0  0  0  0  0  0  0
    1.4289   -7.4250    0.0000 C   0  0  0  0  0  0  0  0  0  0  0  0
    1.4289   -6.6000    0.0000 C   0  0  0  0  0  0  0  0  0  0  0  0
  1  2  1  0  0  0  0
  2  3  1  1  0  0  0
  4  2  1  1  0  0  0
  4  5  1  0  0  0  0
  5  6  1  0  0  0  0
  6  7  1  0  0  0  0
  7  8  1  0  0  0  0
  8  9  1  0  0  0  0
  4  9  1  0  0  0  0
  7 10  1  6  0  0  0
 10 11  2  0  0  0  0
 10 12  1  0  0  0  0
 12 13  1  0  0  0  0
 13 14  4  0  0  0  0
 14 15  4  0  0  0  0
 15 16  4  0  0  0  0
 16 17  4  0  0  0  0
 17 18  4  0  0  0  0
 13 18  4  0  0  0  0
M  END

> <ChembankId>
677

> <SMILES>
C[C@@H](N)[C@H]1CC[C@@H](CC1)C(=O)Nc2ccncc2

> <InChI>
1/C14H21N3O/c1-10(15)11-2-4-12(5-3-11)14(18)17-13-6-8-16-9-7-13/h6-12H,2-5,15H2,1H3,(H,16,17,18)

$$$$
244
  Marvin  11101114192D          

 31 34  0  0  0  0            999 V2000
    3.4718    1.2337    0.0000 C   0  0  0  0  0  0  0  0  0  0  0  0
    4.2297    0.9079    0.0000 C   0  0  0  0  0  0  0  0  0  0  0  0
    4.8908    1.4014    0.0000 N   0  3  0  0  0  0  0  0  0  0  0  0
    5.3843    0.7402    0.0000 C   0  0  0  0  0  0  0  0  0  0  0  0
    4.3974    2.0625    0.0000 C   0  0  0  0  0  0  0  0  0  0  0  0
    4.7232    2.8204    0.0000 C   0  0  0  0  0  0  0  0  0  0  0  0
    5.5520    1.8948    0.0000 C   0  0  0  0  0  0  0  0  0  0  0  0
    6.3099    1.5690    0.0000 C   0  0  0  0  0  0  0  0  0  0  0  0
    6.9710    2.0625    0.0000 C   0  0  0  0  0  0  0  0  0  0  0  0
    7.7290    1.7367    0.0000 N   0  3  0  0  0  0  0  0  0  0  0  0
    8.3901    2.2302    0.0000 C   0  0  0  0  0  0  0  0  0  0  0  0
    8.2933    3.0495    0.0000 C   0  0  0  0  0  0  0  0  0  0  0  0
    7.5354    3.3753    0.0000 C   0  0  0  0  0  0  0  0  0  0  0  0
    7.4386    4.1946    0.0000 C   0  0  0  0  0  0  0  0  0  0  0  0
    8.0997    4.6881    0.0000 C   0  0  0  0  0  0  0  0  0  0  0  0
    8.8577    4.3622    0.0000 C   0  0  0  0  0  0  0  0  0  0  0  0
    8.9545    3.5429    0.0000 C   0  0  0  0  0  0  0  0  0  0  0  0
    9.1481    1.9043    0.0000 C   0  0  0  0  0  0  0  0  0  0  0  0
    9.8092    2.3978    0.0000 C   0  0  0  0  0  0  0  0  0  0  0  0
   10.5671    2.0720    0.0000 C   0  0  0  0  0  0  0  0  0  0  0  0
   11.2283    2.5655    0.0000 N   0  0  0  0  0  0  0  0  0  0  0  0
   10.6639    1.2527    0.0000 C   0  0  0  0  0  0  0  0  0  0  0  0
   10.0028    0.7592    0.0000 C   0  0  0  0  0  0  0  0  0  0  0  0
    9.2448    1.0850    0.0000 C   0  0  0  0  0  0  0  0  0  0  0  0
    8.5837    0.5916    0.0000 C   0  0  0  0  0  0  0  0  0  0  0  0
    8.6805   -0.2277    0.0000 C   0  0  0  0  0  0  0  0  0  0  0  0
    8.0194   -0.7212    0.0000 C   0  0  0  0  0  0  0  0  0  0  0  0
    7.2614   -0.3954    0.0000 C   0  0  0  0  0  0  0  0  0  0  0  0
    6.6003   -0.8889    0.0000 N   0  0  0  0  0  0  0  0  0  0  0  0
    7.1646    0.4239    0.0000 C   0  0  0  0  0  0  0  0  0  0  0  0
    7.8258    0.9174    0.0000 C   0  0  0  0  0  0  0  0  0  0  0  0
  1  2  1  0  0  0  0
  2  3  1  0  0  0  0
  3  4  1  0  0  0  0
  3  5  1  0  0  0  0
  5  6  1  0  0  0  0
  3  7  1  0  0  0  0
  7  8  1  0  0  0  0
  8  9  1  0  0  0  0
  9 10  1  0  0  0  0
 10 11  4  0  0  0  0
 11 12  1  0  0  0  0
 12 13  4  0  0  0  0
 13 14  4  0  0  0  0
 14 15  4  0  0  0  0
 15 16  4  0  0  0  0
 16 17  4  0  0  0  0
 12 17  4  0  0  0  0
 11 18  4  0  0  0  0
 18 19  4  0  0  0  0
 19 20  4  0  0  0  0
 20 21  1  0  0  0  0
 20 22  4  0  0  0  0
 22 23  4  0  0  0  0
 23 24  4  0  0  0  0
 18 24  4  0  0  0  0
 24 25  4  0  0  0  0
 25 26  4  0  0  0  0
 26 27  4  0  0  0  0
 27 28  4  0  0  0  0
 28 29  1  0  0  0  0
 28 30  4  0  0  0  0
 30 31  4  0  0  0  0
 10 31  4  0  0  0  0
 25 31  4  0  0  0  0
M  CHG  2   3   1  10   1
M  END

> <ChembankId>
244

> <SMILES>
CC[N+](C)(CC)CCC[n+]1c(c2ccccc2)c3cc(N)ccc3c4ccc(N)cc14

> <InChI>
1/C27H33N4/c1-4-31(3,5-2)17-9-16-30-26-19-22(29)13-15-24(26)23-14-12-21(28)18-25(23)27(30)20-10-7-6-8-11-20/h6-8,10-15,18-19,29H,4-5,9,16-17,28H2,1-3H3/q+1/p+1

$$$$
1000025
  Marvin  11101114192D          

 27 30  0  0  0  0            999 V2000
    0.0000    2.4750    0.0000 C   0  0  0  0  0  0  0  0  0  0  0  0
    0.7145    2.0625    0.0000 S   0  0  0  0  0  0  0  0  0  0  0  0
    1.4289    2.4750    0.0000 O   0  0  0  0  0  0  0  0  0  0  0  0
    0.7145    1.2375    0.0000 C   0  0  0  0  0  0  0  0  0  0  0  0
    1.4289    0.8250    0.0000 C   0  0  0  0  0  0  0  0  0  0  0  0
    1.4289   -0.0000    0.0000 C   0  0  0  0  0  0  0  0  0  0  0  0
    0.7145   -0.4125    0.0000 C   0  0  0  0  0  0  0  0  0  0  0  0
    0.0000   -0.0000    0.0000 C   0  0  0  0  0  0  0  0  0  0  0  0
    0.0000    0.8250    0.0000 C   0  0  0  0  0  0  0  0  0  0  0  0
    0.7145   -1.2375    0.0000 C   0  0  0  0  0  0  0  0  0  0  0  0
    1.3819   -1.7224    0.0000 N   0  0  0  0  0  0  0  0  0  0  0  0
    1.1270   -2.5070    0.0000 C   0  0  0  0  0  0  0  0  0  0  0  0
    0.3020   -2.5070    0.0000 C   0  0  0  0  0  0  0  0  0  0  0  0
    0.0470   -1.7224    0.0000 N   0  0  0  0  0  0  0  0  0  0  0  0
   -0.1830   -3.1745    0.0000 C   0  0  0  0  0  0  0  0  0  0  0  0
    0.1526   -3.9282    0.0000 C   0  0  0  0  0  0  0  0  0  0  0  0
   -0.3323   -4.5956    0.0000 C   0  0  0  0  0  0  0  0  0  0  0  0
   -1.1528   -4.5094    0.0000 N   0  0  0  0  0  0  0  0  0  0  0  0
   -1.4884   -3.7557    0.0000 C   0  0  0  0  0  0  0  0  0  0  0  0
   -1.0034   -3.0882    0.0000 C   0  0  0  0  0  0  0  0  0  0  0  0
    1.6119   -3.1745    0.0000 C   0  0  0  0  0  0  0  0  0  0  0  0
    2.4324   -3.0882    0.0000 C   0  0  0  0  0  0  0  0  0  0  0  0
    2.9173   -3.7557    0.0000 C   0  0  0  0  0  0  0  0  0  0  0  0
    2.5817   -4.5094    0.0000 C   0  0  0  0  0  0  0  0  0  0  0  0
    3.0667   -5.1768    0.0000 F   0  0  0  0  0  0  0  0  0  0  0  0
    1.7613   -4.5956    0.0000 C   0  0  0  0  0  0  0  0  0  0  0  0
    1.2763   -3.9282    0.0000 C   0  0  0  0  0  0  0  0  0  0  0  0
  1  2  1  0  0  0  0
  2  3  2  0  0  0  0
  2  4  1  0  0  0  0
  4  5  4  0  0  0  0
  5  6  4  0  0  0  0
  6  7  4  0  0  0  0
  7  8  4  0  0  0  0
  8  9  4  0  0  0  0
  4  9  4  0  0  0  0
  7 10  1  0  0  0  0
 10 11  4  0  0  0  0
 11 12  4  0  0  0  0
 12 13  4  0  0  0  0
 13 14  4  0  0  0  0
 10 14  4  0  0  0  0
 13 15  1  0  0  0  0
 15 16  4  0  0  0  0
 16 17  4  0  0  0  0
 17 18  4  0  0  0  0
 18 19  4  0  0  0  0
 19 20  4  0  0  0  0
 15 20  4  0  0  0  0
 12 21  1  0  0  0  0
 21 22  4  0  0  0  0
 22 23  4  0  0  0  0
 23 24  4  0  0  0  0
 24 25  1  0  0  0  0
 24 26  4  0  0  0  0
 26 27  4  0  0  0  0
 21 27  4  0  0  0  0
M  STY  1   1 DAT
M  SAL   1  1  14
M  SDT   1 MRV_IMPLICIT_H                                        
M  SDD   1     0.0000    0.0000    DR    ALL  0       0  
M  SED   1 IMPL_H1
M  END

> <ChembankId>
1000025

> <SMILES>
CS(=O)c1ccc(cc1)c2nc(c([nH]2)c3ccncc3)c4ccc(F)cc4

> <InChI>
1/C21H16FN3OS/c1-27(26)18-8-4-16(5-9-18)21-24-19(14-2-6-17(22)7-3-14)20(25-21)15-10-12-23-13-11-15/h2-13H,1H3,(H,24,25)

$$$$
254
  Marvin  11101114192D          

 35 42  0  0  1  0            999 V2000
    1.8747   -1.5099    0.0000 C   0  0  0  0  0  0  0  0  0  0  0  0
    2.6175   -1.1509    0.0000 N   0  0  0  0  0  0  0  0  0  0  0  0
    2.6781   -0.3281    0.0000 C   0  0  2  0  0  0  0  0  0  0  0  0
    3.4346    0.0843    0.0000 C   0  0  0  0  0  0  0  0  0  0  0  0
    3.5340    1.0056    0.0000 C   0  0  1  0  0  0  0  0  0  0  0  0
    2.7829    1.0943    0.0000 O   0  0  0  0  0  0  0  0  0  0  0  0
    2.0392    1.0803    0.0000 C   0  0  1  0  0  0  0  0  0  0  0  0
    1.2158    1.0290    0.0000 C   0  0  0  0  0  0  0  0  0  0  0  0
    1.9976    0.1848    0.0000 C   0  0  2  0  0  0  0  0  0  0  0  0
    1.2509   -0.1660    0.0000 O   0  0  0  0  0  0  0  0  0  0  0  0
    1.1814   -0.9881    0.0000 C   0  0  0  0  0  0  0  0  0  0  0  0
    1.8845    1.9774    0.0000 N   0  0  0  0  0  0  0  0  0  0  0  0
    1.0837    2.2891    0.0000 C   0  0  0  0  0  0  0  0  0  0  0  0
    0.3426    1.9267    0.0000 C   0  0  0  0  0  0  0  0  0  0  0  0
   -0.3418    2.3873    0.0000 C   0  0  0  0  0  0  0  0  0  0  0  0
   -0.2851    3.2104    0.0000 C   0  0  0  0  0  0  0  0  0  0  0  0
    0.4560    3.5728    0.0000 C   0  0  0  0  0  0  0  0  0  0  0  0
    1.1405    3.1121    0.0000 C   0  0  0  0  0  0  0  0  0  0  0  0
    1.9683    3.3508    0.0000 C   0  0  0  0  0  0  0  0  0  0  0  0
    2.4184    4.0586    0.0000 C   0  0  0  0  0  0  0  0  0  0  0  0
    2.1611    4.8424    0.0000 C   0  0  0  0  0  0  0  0  0  0  0  0
    2.8270    5.3294    0.0000 N   0  0  0  0  0  0  0  0  0  0  0  0
    3.4960    4.8466    0.0000 C   0  0  0  0  0  0  0  0  0  0  0  0
    4.2798    5.1039    0.0000 O   0  0  0  0  0  0  0  0  0  0  0  0
    3.2434    4.0611    0.0000 C   0  0  0  0  0  0  0  0  0  0  0  0
    3.7056    3.3238    0.0000 C   0  0  0  0  0  0  0  0  0  0  0  0
    4.5328    3.0983    0.0000 C   0  0  0  0  0  0  0  0  0  0  0  0
    5.2085    3.5716    0.0000 C   0  0  0  0  0  0  0  0  0  0  0  0
    5.9563    3.2230    0.0000 C   0  0  0  0  0  0  0  0  0  0  0  0
    6.0283    2.4012    0.0000 C   0  0  0  0  0  0  0  0  0  0  0  0
    5.3526    1.9279    0.0000 C   0  0  0  0  0  0  0  0  0  0  0  0
    4.6048    2.2764    0.0000 C   0  0  0  0  0  0  0  0  0  0  0  0
    3.7857    1.9085    0.0000 N   0  0  0  0  0  0  0  0  0  0  0  0
    3.2639    2.6119    0.0000 C   0  0  0  0  0  0  0  0  0  0  0  0
    2.4191    2.6519    0.0000 C   0  0  0  0  0  0  0  0  0  0  0  0
  1  2  1  0  0  0  0
  3  2  1  1  0  0  0
  3  4  1  0  0  0  0
  5  4  1  1  0  0  0
  5  6  1  0  0  0  0
  6  7  1  0  0  0  0
  7  8  1  6  0  0  0
  7  9  1  0  0  0  0
  3  9  1  0  0  0  0
  9 10  1  1  0  0  0
 10 11  1  0  0  0  0
  7 12  1  0  0  0  0
 12 13  4  0  0  0  0
 13 14  4  0  0  0  0
 14 15  4  0  0  0  0
 15 16  4  0  0  0  0
 16 17  4  0  0  0  0
 17 18  4  0  0  0  0
 13 18  4  0  0  0  0
 18 19  4  0  0  0  0
 19 20  4  0  0  0  0
 20 21  1  0  0  0  0
 21 22  1  0  0  0  0
 22 23  1  0  0  0  0
 23 24  2  0  0  0  0
 23 25  1  0  0  0  0
 20 25  4  0  0  0  0
 25 26  4  0  0  0  0
 26 27  4  0  0  0  0
 27 28  4  0  0  0  0
 28 29  4  0  0  0  0
 29 30  4  0  0  0  0
 30 31  4  0  0  0  0
 31 32  4  0  0  0  0
 27 32  4  0  0  0  0
 32 33  4  0  0  0  0
  5 33  1  0  0  0  0
 33 34  4  0  0  0  0
 26 34  4  0  0  0  0
 34 35  4  0  0  0  0
 12 35  4  0  0  0  0
 19 35  4  0  0  0  0
M  END

> <ChembankId>
254

> <SMILES>
CN[C@@H]1C[C@H]2O[C@@](C)([C@@H]1OC)n3c4ccccc4c5c6CNC(=O)c6c7c8ccccc8n2c7c35

> <InChI>
1/C28H26N4O3/c1-28-26(34-3)17(29-2)12-20(35-28)31-18-10-6-4-8-14(18)22-23-16(13-30-27(23)33)21-15-9-5-7-11-19(15)32(28)25(21)24(22)31/h4-11,17,20,26,29H,12-13H2,1-3H3,(H,30,33)

$$$$
293
  Marvin  11101114192D          

 31 35  0  0  1  0            999 V2000
   -0.8430   -3.4554    0.0000 C   0  0  0  0  0  0  0  0  0  0  0  0
   -0.8430   -2.6304    0.0000 O   0  0  0  0  0  0  0  0  0  0  0  0
   -0.1286   -2.2179    0.0000 C   0  0  0  0  0  0  0  0  0  0  0  0
   -0.1286   -1.3929    0.0000 C   0  0  1  0  0  0  0  0  0  0  0  0
   -0.8411   -0.9804    0.0000 O   0  0  0  0  0  0  0  0  0  0  0  0
   -0.8411   -0.1554    0.0000 C   0  0  0  0  0  0  0  0  0  0  0  0
   -1.5558    0.2567    0.0000 O   0  0  0  0  0  0  0  0  0  0  0  0
   -0.1286    0.2571    0.0000 C   0  0  0  0  0  0  0  0  0  0  0  0
    0.1714    1.1143    0.0000 C   0  0  0  0  0  0  0  0  0  0  0  0
    0.9964    1.1143    0.0000 O   0  0  0  0  0  0  0  0  0  0  0  0
    1.3018    0.2571    0.0000 C   0  0  0  0  0  0  0  0  0  0  0  0
    2.0143   -0.1554    0.0000 C   0  0  0  0  0  0  0  0  0  0  0  0
    2.7290    0.2567    0.0000 O   0  0  0  0  0  0  0  0  0  0  0  0
    2.0143   -0.9804    0.0000 C   0  0  0  0  0  0  0  0  0  0  0  0
    1.3003   -1.3937    0.0000 C   0  0  0  0  0  0  0  0  0  0  0  0
    1.3013   -2.2187    0.0000 C   0  0  1  0  0  0  0  0  0  0  0  0
    2.0163   -2.6304    0.0000 C   0  0  0  0  0  0  0  0  0  0  0  0
    2.7302   -2.2170    0.0000 C   0  0  1  0  0  0  0  0  0  0  0  0
    2.8175   -3.0374    0.0000 C   0  0  0  0  0  0  0  0  0  0  0  0
    2.7292   -1.3920    0.0000 C   0  0  0  0  0  0  0  0  0  0  0  0
    3.5136   -1.1361    0.0000 C   0  0  0  0  0  0  0  0  0  0  0  0
    3.9993   -1.8030    0.0000 C   0  0  0  0  0  0  0  0  0  0  0  0
    3.5152   -2.4710    0.0000 C   0  0  0  0  0  0  0  0  0  0  0  0
    3.7710   -3.2553    0.0000 O   0  0  0  0  0  0  0  0  0  0  0  0
    0.5873   -2.6321    0.0000 O   0  0  0  0  0  0  0  0  0  0  0  0
    0.5883   -3.4571    0.0000 C   0  0  0  0  0  0  0  0  0  0  0  0
    1.3033   -3.8687    0.0000 O   0  0  0  0  0  0  0  0  0  0  0  0
   -0.1257   -3.8704    0.0000 C   0  0  0  0  0  0  0  0  0  0  0  0
    0.5839   -0.9804    0.0000 C   0  0  1  0  0  0  0  0  0  0  0  0
    0.5845   -1.8054    0.0000 C   0  0  0  0  0  0  0  0  0  0  0  0
    0.5839   -0.1554    0.0000 C   0  0  0  0  0  0  0  0  0  0  0  0
  1  2  1  0  0  0  0
  2  3  1  0  0  0  0
  4  3  1  1  0  0  0
  4  5  1  0  0  0  0
  5  6  1  0  0  0  0
  6  7  2  0  0  0  0
  6  8  1  0  0  0  0
  8  9  4  0  0  0  0
  9 10  4  0  0  0  0
 10 11  4  0  0  0  0
 11 12  1  0  0  0  0
 12 13  2  0  0  0  0
 12 14  1  0  0  0  0
 14 15  2  0  0  0  0
 15 16  1  0  0  0  0
 16 17  1  0  0  0  0
 17 18  1  0  0  0  0
 18 19  1  6  0  0  0
 18 20  1  0  0  0  0
 14 20  1  0  0  0  0
 20 21  1  0  0  0  0
 21 22  1  0  0  0  0
 22 23  1  0  0  0  0
 18 23  1  0  0  0  0
 23 24  2  0  0  0  0
 16 25  1  1  0  0  0
 25 26  1  0  0  0  0
 26 27  2  0  0  0  0
 26 28  1  0  0  0  0
 15 29  1  0  0  0  0
  4 29  1  0  0  0  0
 29 30  1  6  0  0  0
 29 31  1  0  0  0  0
  8 31  4  0  0  0  0
 11 31  4  0  0  0  0
M  END

> <ChembankId>
293

> <SMILES>
COC[C@H]1OC(=O)c2coc3C(=O)C4=C([C@@H](C[C@@]5(C)C4CCC5=O)OC(=O)C)[C@]1(C)c23

> <InChI>
1/C23H24O8/c1-10(24)30-13-7-22(2)12(5-6-14(22)25)16-18(13)23(3)15(9-28-4)31-21(27)11-8-29-20(17(11)23)19(16)26/h8,12-13,15H,5-7,9H2,1-4H3

$$$$
308
  Marvin  11101114192D          

 23 23  0  0  1  0            999 V2000
   -0.0230    6.4235    0.0000 C   0  0  0  0  0  0  0  0  0  0  0  0
   -0.8076    6.6785    0.0000 C   0  0  0  0  0  0  0  0  0  0  0  0
   -1.4207    6.1265    0.0000 C   0  0  0  0  0  0  0  0  0  0  0  0
   -2.2053    6.3814    0.0000 C   0  0  0  0  0  0  0  0  0  0  0  0
   -2.8184    5.8294    0.0000 C   0  0  0  0  0  0  0  0  0  0  0  0
   -3.6031    6.0843    0.0000 C   0  0  0  0  0  0  0  0  0  0  0  0
   -4.2162    5.5323    0.0000 C   0  0  0  0  0  0  0  0  0  0  0  0
   -5.0008    5.7872    0.0000 C   0  0  0  0  0  0  0  0  0  0  0  0
   -5.6139    5.2352    0.0000 C   0  0  0  0  0  0  0  0  0  0  0  0
   -5.5276    4.4147    0.0000 C   0  0  1  0  0  0  0  0  0  0  0  0
   -4.8132    4.0022    0.0000 C   0  0  0  0  0  0  0  0  0  0  0  0
   -4.8132    3.1772    0.0000 C   0  0  0  0  0  0  0  0  0  0  0  0
   -4.0987    2.7647    0.0000 C   0  0  0  0  0  0  0  0  0  0  0  0
   -3.3842    3.1772    0.0000 C   0  0  0  0  0  0  0  0  0  0  0  0
   -2.6698    2.7647    0.0000 C   0  0  0  0  0  0  0  0  0  0  0  0
   -1.9553    3.1772    0.0000 C   0  0  0  0  0  0  0  0  0  0  0  0
   -1.2408    2.7647    0.0000 C   0  0  0  0  0  0  0  0  0  0  0  0
   -0.5263    3.1772    0.0000 O   0  0  0  0  0  0  0  0  0  0  0  0
   -1.2408    1.9397    0.0000 O   0  0  0  0  0  0  0  0  0  0  0  0
   -6.2813    4.0791    0.0000 C   0  0  0  0  0  0  0  0  0  0  0  0
   -6.8333    4.6922    0.0000 C   0  0  0  0  0  0  0  0  0  0  0  0
   -6.4208    5.4067    0.0000 C   0  0  0  0  0  0  0  0  0  0  0  0
   -6.7564    6.1604    0.0000 O   0  0  0  0  0  0  0  0  0  0  0  0
  1  2  1  0  0  0  0
  2  3  1  0  0  0  0
  3  4  1  0  0  0  0
  4  5  1  0  0  0  0
  5  6  1  0  0  0  0
  6  7  2  0  0  0  0
  7  8  1  0  0  0  0
  8  9  2  0  0  0  0
  9 10  1  0  0  0  0
 10 11  1  1  0  0  0
 11 12  1  0  0  0  0
 12 13  2  0  0  0  0
 13 14  1  0  0  0  0
 14 15  1  0  0  0  0
 15 16  1  0  0  0  0
 16 17  1  0  0  0  0
 17 18  2  0  0  0  0
 17 19  1  0  0  0  0
 10 20  1  0  0  0  0
 20 21  2  0  0  0  0
 21 22  1  0  0  0  0
  9 22  1  0  0  0  0
 22 23  2  0  0  0  0
M  END

> <ChembankId>
308

> <SMILES>
CCCCC/C=C/C=C/1\[C@@H](C/C=C\CCCC(=O)O)C=CC1=O

> <InChI>
1/C20H28O3/c1-2-3-4-5-6-10-13-18-17(15-16-19(18)21)12-9-7-8-11-14-20(22)23/h6-7,9-10,13,15-17H,2-5,8,11-12,14H2,1H3,(H,22,23)

$$$$
336
  Marvin  11101114192D          

 19 20  0  0  1  0            999 V2000
    2.2501    6.8277    0.0000 C   0  0  0  0  0  0  0  0  0  0  0  0
    2.2501    6.0027    0.0000 O   0  0  0  0  0  0  0  0  0  0  0  0
    1.5356    5.5902    0.0000 C   0  0  0  0  0  0  0  0  0  0  0  0
    1.5356    4.7652    0.0000 C   0  0  0  0  0  0  0  0  0  0  0  0
    0.8212    4.3527    0.0000 C   0  0  0  0  0  0  0  0  0  0  0  0
    0.1067    4.7652    0.0000 C   0  0  0  0  0  0  0  0  0  0  0  0
   -0.6078    4.3527    0.0000 C   0  0  0  0  0  0  0  0  0  0  0  0
   -0.6078    3.5277    0.0000 C   0  0  1  0  0  0  0  0  0  0  0  0
    0.0597    3.0428    0.0000 N   0  0  0  0  0  0  0  0  0  0  0  0
   -0.1953    2.2581    0.0000 C   0  0  0  0  0  0  0  0  0  0  0  0
   -1.0203    2.2581    0.0000 C   0  0  2  0  0  0  0  0  0  0  0  0
   -1.5052    1.5907    0.0000 O   0  0  0  0  0  0  0  0  0  0  0  0
   -1.2752    3.0428    0.0000 C   0  0  1  0  0  0  0  0  0  0  0  0
   -2.0598    3.2977    0.0000 O   0  0  0  0  0  0  0  0  0  0  0  0
   -2.2314    4.1047    0.0000 C   0  0  0  0  0  0  0  0  0  0  0  0
   -3.0160    4.3596    0.0000 O   0  0  0  0  0  0  0  0  0  0  0  0
   -1.6183    4.6567    0.0000 C   0  0  0  0  0  0  0  0  0  0  0  0
    0.1067    5.5902    0.0000 C   0  0  0  0  0  0  0  0  0  0  0  0
    0.8212    6.0027    0.0000 C   0  0  0  0  0  0  0  0  0  0  0  0
  1  2  1  0  0  0  0
  2  3  1  0  0  0  0
  3  4  4  0  0  0  0
  4  5  4  0  0  0  0
  5  6  4  0  0  0  0
  6  7  1  0  0  0  0
  8  7  1  1  0  0  0
  8  9  1  0  0  0  0
  9 10  1  0  0  0  0
 10 11  1  0  0  0  0
 11 12  1  6  0  0  0
 11 13  1  0  0  0  0
  8 13  1  0  0  0  0
 13 14  1  1  0  0  0
 14 15  1  0  0  0  0
 15 16  2  0  0  0  0
 15 17  1  0  0  0  0
  6 18  4  0  0  0  0
 18 19  4  0  0  0  0
  3 19  4  0  0  0  0
M  END

> <ChembankId>
336

> <SMILES>
COc1ccc(C[C@H]2NC[C@H](O)[C@H]2OC(=O)C)cc1

> <InChI>
1/C14H19NO4/c1-9(16)19-14-12(15-8-13(14)17)7-10-3-5-11(18-2)6-4-10/h3-6,12-15,17H,7-8H2,1-2H3

$$$$
341
  Marvin  11101114192D          

 14 14  0  0  1  0            999 V2000
    2.8579    0.8250    0.0000 N   0  0  0  0  0  0  0  0  0  0  0  0
    2.8579   -0.0000    0.0000 C   0  0  1  0  0  0  0  0  0  0  0  0
    2.1434   -0.4125    0.0000 C   0  0  0  0  0  0  0  0  0  0  0  0
    1.4289   -0.0000    0.0000 N   0  0  0  0  0  0  0  0  0  0  0  0
    0.7145   -0.4125    0.0000 C   0  0  0  0  0  0  0  0  0  0  0  0
    0.0000   -0.0000    0.0000 C   0  0  0  0  0  0  0  0  0  0  0  0
    0.0000    0.8250    0.0000 C   0  0  0  0  0  0  0  0  0  0  0  0
   -0.7145    1.2375    0.0000 O   0  0  0  0  0  0  0  0  0  0  0  0
    0.7145    1.2375    0.0000 C   0  0  0  0  0  0  0  0  0  0  0  0
    0.7145    2.0625    0.0000 O   0  0  0  0  0  0  0  0  0  0  0  0
    1.4289    0.8250    0.0000 C   0  0  0  0  0  0  0  0  0  0  0  0
    3.5724   -0.4125    0.0000 C   0  0  0  0  0  0  0  0  0  0  0  0
    4.2868   -0.0000    0.0000 O   0  0  0  0  0  0  0  0  0  0  0  0
    3.5724   -1.2375    0.0000 O   0  0  0  0  0  0  0  0  0  0  0  0
  2  1  1  6  0  0  0
  2  3  1  0  0  0  0
  3  4  1  0  0  0  0
  4  5  4  0  0  0  0
  5  6  4  0  0  0  0
  6  7  4  0  0  0  0
  7  8  2  0  0  0  0
  7  9  4  0  0  0  0
  9 10  1  0  0  0  0
  9 11  4  0  0  0  0
  4 11  4  0  0  0  0
  2 12  1  0  0  0  0
 12 13  2  0  0  0  0
 12 14  1  0  0  0  0
M  END

> <ChembankId>
341

> <SMILES>
N[C@@H](Cn1ccc(=O)c(O)c1)C(=O)O

> <InChI>
1/C8H10N2O4/c9-5(8(13)14)3-10-2-1-6(11)7(12)4-10/h1-2,4-5,12H,3,9H2,(H,13,14)

$$$$
350
  Marvin  11101114192D          

 59 67  0  0  1  0            999 V2000
    8.0569   -0.2548    0.0000 C   0  0  0  0  0  0  0  0  0  0  0  0
    7.3563   -0.6906    0.0000 C   0  0  0  0  0  0  0  0  0  0  0  0
    6.6287   -0.3017    0.0000 C   0  0  2  0  0  0  0  0  0  0  0  0
    7.1158    0.3641    0.0000 O   0  0  0  0  0  0  0  0  0  0  0  0
    6.0160    0.2952    0.0000 C   0  0  0  0  0  0  0  0  0  0  0  0
    5.1553    0.1361    0.0000 C   0  0  1  0  0  0  0  0  0  0  0  0
    5.2506   -0.6160    0.0000 C   0  0  0  0  0  0  0  0  0  0  0  0
    5.4908   -1.3351    0.0000 N   0  0  0  0  0  0  0  0  0  0  0  0
    6.3354   -1.1053    0.0000 C   0  0  0  0  0  0  0  0  0  0  0  0
    4.8187   -1.8964    0.0000 C   0  0  0  0  0  0  0  0  0  0  0  0
    3.9623   -1.9814    0.0000 C   0  0  0  0  0  0  0  0  0  0  0  0
    3.2792   -1.4899    0.0000 C   0  0  0  0  0  0  0  0  0  0  0  0
    3.0958   -0.6856    0.0000 C   0  0  0  0  0  0  0  0  0  0  0  0
    2.2741   -0.6115    0.0000 N   0  0  0  0  0  0  0  0  0  0  0  0
    1.9497   -1.3700    0.0000 C   0  0  0  0  0  0  0  0  0  0  0  0
    1.1690   -1.6365    0.0000 C   0  0  0  0  0  0  0  0  0  0  0  0
    1.0094   -2.4460    0.0000 C   0  0  0  0  0  0  0  0  0  0  0  0
    1.6306   -2.9889    0.0000 C   0  0  0  0  0  0  0  0  0  0  0  0
    2.4113   -2.7224    0.0000 C   0  0  0  0  0  0  0  0  0  0  0  0
    2.5709   -1.9129    0.0000 C   0  0  0  0  0  0  0  0  0  0  0  0
    3.4977    0.0558    0.0000 C   0  0  1  0  0  0  0  0  0  0  0  0
    4.3063    0.3505    0.0000 C   0  0  0  0  0  0  0  0  0  0  0  0
    2.7405    0.3831    0.0000 C   0  0  0  0  0  0  0  0  0  0  0  0
    2.1818    0.9902    0.0000 O   0  0  0  0  0  0  0  0  0  0  0  0
    2.0783   -0.1090    0.0000 O   0  0  0  0  0  0  0  0  0  0  0  0
    1.3211    0.2183    0.0000 C   0  0  0  0  0  0  0  0  0  0  0  0
    3.2851    0.8529    0.0000 C   0  0  0  0  0  0  0  0  0  0  0  0
    2.4884    1.0673    0.0000 C   0  0  0  0  0  0  0  0  0  0  0  0
    2.2757    1.8644    0.0000 C   0  0  0  0  0  0  0  0  0  0  0  0
    2.8597    2.4471    0.0000 C   0  0  0  0  0  0  0  0  0  0  0  0
    3.6564    2.2327    0.0000 C   0  0  0  0  0  0  0  0  0  0  0  0
    3.8690    1.4356    0.0000 C   0  0  0  0  0  0  0  0  0  0  0  0
    4.6657    1.2213    0.0000 O   0  0  0  0  0  0  0  0  0  0  0  0
    5.2497    1.8040    0.0000 C   0  0  0  0  0  0  0  0  0  0  0  0
    2.4859    3.1826    0.0000 N   0  0  0  0  0  0  0  0  0  0  0  0
    2.8612    3.9173    0.0000 C   0  0  0  0  0  0  0  0  0  0  0  0
    1.6709    3.0544    0.0000 C   0  0  2  0  0  0  0  0  0  0  0  0
    1.5410    2.2397    0.0000 C   0  0  2  0  0  0  0  0  0  0  0  0
    2.0595    1.5980    0.0000 C   0  0  0  0  0  0  0  0  0  0  0  0
    1.6095    0.9066    0.0000 C   0  0  0  0  0  0  0  0  0  0  0  0
    0.6406    1.1301    0.0000 N   0  0  0  0  0  0  0  0  0  0  0  0
   -0.1299    0.8353    0.0000 C   0  0  0  0  0  0  0  0  0  0  0  0
   -0.7705    1.3552    0.0000 C   0  0  0  0  0  0  0  0  0  0  0  0
   -0.6406    2.1699    0.0000 C   0  0  0  0  0  0  0  0  0  0  0  0
    0.1299    2.4647    0.0000 C   0  0  2  0  0  0  0  0  0  0  0  0
   -0.5107    2.9846    0.0000 C   0  0  0  0  0  0  0  0  0  0  0  0
   -1.2812    2.6897    0.0000 C   0  0  0  0  0  0  0  0  0  0  0  0
    0.7705    1.9448    0.0000 C   0  0  1  0  0  0  0  0  0  0  0  0
    0.2598    3.2794    0.0000 C   0  0  1  0  0  0  0  0  0  0  0  0
   -0.3808    3.7993    0.0000 C   0  0  0  0  0  0  0  0  0  0  0  0
   -1.1513    3.5044    0.0000 O   0  0  0  0  0  0  0  0  0  0  0  0
   -0.2508    4.6140    0.0000 O   0  0  0  0  0  0  0  0  0  0  0  0
   -0.8914    5.1338    0.0000 C   0  0  0  0  0  0  0  0  0  0  0  0
    1.0304    3.5743    0.0000 C   0  0  1  0  0  0  0  0  0  0  0  0
    0.7626    4.3546    0.0000 O   0  0  0  0  0  0  0  0  0  0  0  0
    1.5275    4.2326    0.0000 C   0  0  0  0  0  0  0  0  0  0  0  0
    2.3463    4.1312    0.0000 O   0  0  0  0  0  0  0  0  0  0  0  0
    1.2060    4.9924    0.0000 O   0  0  0  0  0  0  0  0  0  0  0  0
    1.7032    5.6507    0.0000 C   0  0  0  0  0  0  0  0  0  0  0  0
  1  2  1  0  0  0  0
  3  2  1  1  0  0  0
  3  4  1  6  0  0  0
  3  5  1  0  0  0  0
  6  5  1  1  0  0  0
  6  7  1  0  0  0  0
  7  8  1  0  0  0  0
  8  9  1  0  0  0  0
  3  9  1  0  0  0  0
  8 10  1  0  0  0  0
 10 11  1  0  0  0  0
 11 12  1  0  0  0  0
 12 13  4  0  0  0  0
 13 14  4  0  0  0  0
 14 15  4  0  0  0  0
 15 16  4  0  0  0  0
 16 17  4  0  0  0  0
 17 18  4  0  0  0  0
 18 19  4  0  0  0  0
 19 20  4  0  0  0  0
 12 20  4  0  0  0  0
 15 20  4  0  0  0  0
 13 21  1  0  0  0  0
 21 22  1  0  0  0  0
  6 22  1  0  0  0  0
 21 23  1  6  0  0  0
 23 24  2  0  0  0  0
 23 25  1  0  0  0  0
 25 26  1  0  0  0  0
 21 27  1  1  0  0  0
 27 28  4  0  0  0  0
 28 29  4  0  0  0  0
 29 30  4  0  0  0  0
 30 31  4  0  0  0  0
 31 32  4  0  0  0  0
 27 32  4  0  0  0  0
 32 33  1  0  0  0  0
 33 34  1  0  0  0  0
 30 35  1  0  0  0  0
 35 36  1  0  0  0  0
 37 35  1  6  0  0  0
 37 38  1  0  0  0  0
 29 38  1  0  0  0  0
 38 39  1  1  0  0  0
 39 40  1  0  0  0  0
 40 41  1  0  0  0  0
 41 42  1  0  0  0  0
 42 43  1  0  0  0  0
 43 44  2  0  0  0  0
 44 45  1  0  0  0  0
 45 46  1  6  0  0  0
 46 47  1  0  0  0  0
 45 48  1  0  0  0  0
 48 41  1  1  0  0  0
 38 48  1  0  0  0  0
 45 49  1  0  0  0  0
 49 50  1  1  0  0  0
 50 51  2  0  0  0  0
 50 52  1  0  0  0  0
 52 53  1  0  0  0  0
 49 54  1  0  0  0  0
 37 54  1  0  0  0  0
 54 55  1  1  0  0  0
 54 56  1  6  0  0  0
 56 57  2  0  0  0  0
 56 58  1  0  0  0  0
 58 59  1  0  0  0  0
M  STY  1   1 DAT
M  SAL   1  1  14
M  SDT   1 MRV_IMPLICIT_H                                        
M  SDD   1     0.0000    0.0000    DR    ALL  0       0  
M  SED   1 IMPL_H1
M  END

> <ChembankId>
350

> <SMILES>
CC[C@]1(O)C[C@H]2CN(C1)CCc3c([nH]c4ccccc34)[C@@](C2)(C(=O)OC)c5cc6c(cc5OC)N(C)[C@@H]7[C@@]86CCN9CC=C[C@](CC)([C@H]98)[C@@H](C(=O)OC)[C@]7(O)C(=O)OC

> <InChI>
1/C46H58N4O9/c1-8-42(54)23-27-24-45(40(52)58-6,36-29(15-19-49(25-27)26-42)28-13-10-11-14-32(28)47-36)31-21-30-33(22-34(31)56-4)48(3)39-44(30)17-20-50-18-12-16-43(9-2,38(44)50)35(37(51)57-5)46(39,55)41(53)59-7/h10-14,16,21-22,27,35,38-39,47,54-55H,8-9,15,17-20,23-26H2,1-7H3/t27-,35+,38+,39-,42+,43+,44-,45+,46-/m1/s1

$$$$
353
  Marvin  11101114192D          

 22 24  0  0  0  0            999 V2000
    0.0000   -1.6500    0.0000 O   0  0  0  0  0  0  0  0  0  0  0  0
    0.7145   -1.2375    0.0000 C   0  0  0  0  0  0  0  0  0  0  0  0
    0.7145   -0.4125    0.0000 C   0  0  0  0  0  0  0  0  0  0  0  0
    1.4289    0.0000    0.0000 C   0  0  0  0  0  0  0  0  0  0  0  0
    1.4289    0.8250    0.0000 O   0  0  0  0  0  0  0  0  0  0  0  0
    2.1434   -0.4125    0.0000 C   0  0  0  0  0  0  0  0  0  0  0  0
    2.8579    0.0000    0.0000 C   0  0  0  0  0  0  0  0  0  0  0  0
    2.8579    0.8250    0.0000 O   0  0  0  0  0  0  0  0  0  0  0  0
    3.5724   -0.4125    0.0000 C   0  0  0  0  0  0  0  0  0  0  0  0
    4.2868   -0.0000    0.0000 O   0  0  0  0  0  0  0  0  0  0  0  0
    3.5724   -1.2375    0.0000 C   0  0  0  0  0  0  0  0  0  0  0  0
    2.8579   -1.6500    0.0000 O   0  0  0  0  0  0  0  0  0  0  0  0
    2.1434   -1.2375    0.0000 C   0  0  0  0  0  0  0  0  0  0  0  0
    1.4289   -1.6500    0.0000 C   0  0  0  0  0  0  0  0  0  0  0  0
    4.2868   -1.6500    0.0000 C   0  0  0  0  0  0  0  0  0  0  0  0
    5.0013   -1.2375    0.0000 C   0  0  0  0  0  0  0  0  0  0  0  0
    5.7158   -1.6500    0.0000 C   0  0  0  0  0  0  0  0  0  0  0  0
    5.7158   -2.4750    0.0000 C   0  0  0  0  0  0  0  0  0  0  0  0
    6.4302   -2.8875    0.0000 O   0  0  0  0  0  0  0  0  0  0  0  0
    5.0013   -2.8875    0.0000 C   0  0  0  0  0  0  0  0  0  0  0  0
    5.0013   -3.7125    0.0000 O   0  0  0  0  0  0  0  0  0  0  0  0
    4.2868   -2.4750    0.0000 C   0  0  0  0  0  0  0  0  0  0  0  0
  1  2  1  0  0  0  0
  2  3  4  0  0  0  0
  3  4  4  0  0  0  0
  4  5  1  0  0  0  0
  4  6  4  0  0  0  0
  6  7  4  0  0  0  0
  7  8  2  0  0  0  0
  7  9  4  0  0  0  0
  9 10  1  0  0  0  0
  9 11  4  0  0  0  0
 11 12  4  0  0  0  0
 12 13  4  0  0  0  0
  6 13  4  0  0  0  0
 13 14  4  0  0  0  0
  2 14  4  0  0  0  0
 11 15  1  0  0  0  0
 15 16  4  0  0  0  0
 16 17  4  0  0  0  0
 17 18  4  0  0  0  0
 18 19  1  0  0  0  0
 18 20  4  0  0  0  0
 20 21  1  0  0  0  0
 20 22  4  0  0  0  0
 15 22  4  0  0  0  0
M  END

> <ChembankId>
353

> <SMILES>
Oc1cc(O)c2c(=O)c(O)c(oc2c1)c3ccc(O)c(O)c3

> <InChI>
1/C15H10O7/c16-7-4-10(19)12-11(5-7)22-15(14(21)13(12)20)6-1-2-8(17)9(18)3-6/h1-5,16-19,21H

$$$$
355
  Marvin  11101114192D          

 29 31  0  0  1  0            999 V2000
    4.9141   -1.5596    0.0000 C   0  0  0  0  0  0  0  0  0  0  0  0
    4.0984   -1.6826    0.0000 O   0  0  0  0  0  0  0  0  0  0  0  0
    3.5840   -1.0375    0.0000 C   0  0  0  0  0  0  0  0  0  0  0  0
    2.7682   -1.1605    0.0000 C   0  0  0  0  0  0  0  0  0  0  0  0
    2.2538   -0.5155    0.0000 C   0  0  0  0  0  0  0  0  0  0  0  0
    2.5552    0.2525    0.0000 C   0  0  0  0  0  0  0  0  0  0  0  0
    3.3710    0.3754    0.0000 C   0  0  0  0  0  0  0  0  0  0  0  0
    3.8854   -0.2696    0.0000 C   0  0  0  0  0  0  0  0  0  0  0  0
    2.0408    0.8975    0.0000 C   0  0  2  0  0  0  0  0  0  0  0  0
    1.2365    0.7139    0.0000 S   0  0  0  0  0  0  0  0  0  0  0  0
    0.5915    1.2283    0.0000 C   0  0  0  0  0  0  0  0  0  0  0  0
   -0.1230    0.8158    0.0000 C   0  0  0  0  0  0  0  0  0  0  0  0
   -0.8374    1.2283    0.0000 C   0  0  0  0  0  0  0  0  0  0  0  0
   -0.8374    2.0533    0.0000 C   0  0  0  0  0  0  0  0  0  0  0  0
   -0.1230    2.4658    0.0000 C   0  0  0  0  0  0  0  0  0  0  0  0
    0.5915    2.0533    0.0000 C   0  0  0  0  0  0  0  0  0  0  0  0
    1.2365    2.5677    0.0000 N   0  0  0  0  0  0  0  0  0  0  0  0
    1.0529    3.3720    0.0000 C   0  0  0  0  0  0  0  0  0  0  0  0
    0.2646    3.6152    0.0000 C   0  0  0  0  0  0  0  0  0  0  0  0
    0.0810    4.4195    0.0000 N   0  0  0  0  0  0  0  0  0  0  0  0
   -0.7073    4.6626    0.0000 C   0  0  0  0  0  0  0  0  0  0  0  0
    0.6858    4.9806    0.0000 C   0  0  0  0  0  0  0  0  0  0  0  0
    2.0408    2.3841    0.0000 C   0  0  0  0  0  0  0  0  0  0  0  0
    2.5552    3.0291    0.0000 O   0  0  0  0  0  0  0  0  0  0  0  0
    2.3988    1.6408    0.0000 C   0  0  2  0  0  0  0  0  0  0  0  0
    3.2238    1.6408    0.0000 O   0  0  0  0  0  0  0  0  0  0  0  0
    3.6363    2.3553    0.0000 C   0  0  0  0  0  0  0  0  0  0  0  0
    3.2238    3.0697    0.0000 O   0  0  0  0  0  0  0  0  0  0  0  0
    4.4613    2.3553    0.0000 C   0  0  0  0  0  0  0  0  0  0  0  0
  1  2  1  0  0  0  0
  2  3  1  0  0  0  0
  3  4  4  0  0  0  0
  4  5  4  0  0  0  0
  5  6  4  0  0  0  0
  6  7  4  0  0  0  0
  7  8  4  0  0  0  0
  3  8  4  0  0  0  0
  9  6  1  6  0  0  0
  9 10  1  0  0  0  0
 10 11  1  0  0  0  0
 11 12  4  0  0  0  0
 12 13  4  0  0  0  0
 13 14  4  0  0  0  0
 14 15  4  0  0  0  0
 15 16  4  0  0  0  0
 11 16  4  0  0  0  0
 16 17  1  0  0  0  0
 17 18  1  0  0  0  0
 18 19  1  0  0  0  0
 19 20  1  0  0  0  0
 20 21  1  0  0  0  0
 20 22  1  0  0  0  0
 17 23  1  0  0  0  0
 23 24  2  0  0  0  0
 23 25  1  0  0  0  0
  9 25  1  0  0  0  0
 25 26  1  6  0  0  0
 26 27  1  0  0  0  0
 27 28  2  0  0  0  0
 27 29  1  0  0  0  0
M  END

> <ChembankId>
355

> <SMILES>
COc1ccc(cc1)[C@@H]2Sc3ccccc3N(CCN(C)C)C(=O)[C@@H]2OC(=O)C

> <InChI>
1/C22H26N2O4S/c1-15(25)28-20-21(16-9-11-17(27-4)12-10-16)29-19-8-6-5-7-18(19)24(22(20)26)14-13-23(2)3/h5-12,20-21H,13-14H2,1-4H3

$$$$
360
  Marvin  11101114192D          

 20 22  0  0  0  0            999 V2000
   -2.1434   -2.8875    0.0000 O   0  0  0  0  0  0  0  0  0  0  0  0
   -1.4289   -2.4750    0.0000 C   0  0  0  0  0  0  0  0  0  0  0  0
   -1.4289   -1.6500    0.0000 C   0  0  0  0  0  0  0  0  0  0  0  0
   -0.7145   -1.2375    0.0000 C   0  0  0  0  0  0  0  0  0  0  0  0
    0.0000   -1.6500    0.0000 C   0  0  0  0  0  0  0  0  0  0  0  0
    0.0000   -2.4750    0.0000 C   0  0  0  0  0  0  0  0  0  0  0  0
   -0.7145   -2.8875    0.0000 C   0  0  0  0  0  0  0  0  0  0  0  0
    0.7145   -1.2375    0.0000 C   0  0  0  0  0  0  0  0  0  0  0  0
    0.7145   -0.4125    0.0000 C   0  0  0  0  0  0  0  0  0  0  0  0
    1.4289    0.0000    0.0000 C   0  0  0  0  0  0  0  0  0  0  0  0
    1.4289    0.8250    0.0000 O   0  0  0  0  0  0  0  0  0  0  0  0
    2.1434   -0.4125    0.0000 C   0  0  0  0  0  0  0  0  0  0  0  0
    2.8579    0.0000    0.0000 C   0  0  0  0  0  0  0  0  0  0  0  0
    2.8579    0.8250    0.0000 O   0  0  0  0  0  0  0  0  0  0  0  0
    3.5724   -0.4125    0.0000 C   0  0  0  0  0  0  0  0  0  0  0  0
    3.5724   -1.2375    0.0000 C   0  0  0  0  0  0  0  0  0  0  0  0
    4.2868   -1.6500    0.0000 O   0  0  0  0  0  0  0  0  0  0  0  0
    2.8579   -1.6500    0.0000 C   0  0  0  0  0  0  0  0  0  0  0  0
    2.1434   -1.2375    0.0000 C   0  0  0  0  0  0  0  0  0  0  0  0
    1.4289   -1.6500    0.0000 O   0  0  0  0  0  0  0  0  0  0  0  0
  1  2  1  0  0  0  0
  2  3  4  0  0  0  0
  3  4  4  0  0  0  0
  4  5  4  0  0  0  0
  5  6  4  0  0  0  0
  6  7  4  0  0  0  0
  2  7  4  0  0  0  0
  5  8  1  0  0  0  0
  8  9  4  0  0  0  0
  9 10  4  0  0  0  0
 10 11  2  0  0  0  0
 10 12  4  0  0  0  0
 12 13  4  0  0  0  0
 13 14  1  0  0  0  0
 13 15  4  0  0  0  0
 15 16  4  0  0  0  0
 16 17  1  0  0  0  0
 16 18  4  0  0  0  0
 18 19  4  0  0  0  0
 12 19  4  0  0  0  0
 19 20  4  0  0  0  0
  8 20  4  0  0  0  0
M  END

> <ChembankId>
360

> <SMILES>
Oc1ccc(cc1)c2cc(=O)c3c(O)cc(O)cc3o2

> <InChI>
1/C15H10O5/c16-9-3-1-8(2-4-9)13-7-12(19)15-11(18)5-10(17)6-14(15)20-13/h1-7,16-18H

$$$$
362
  Marvin  11101114192D          

 17 17  0  0  0  0            999 V2000
   -1.5395   -1.4586    0.0000 C   0  0  0  0  0  0  0  0  0  0  0  0
   -0.7145   -1.4586    0.0000 C   0  0  0  0  0  0  0  0  0  0  0  0
   -0.3020   -2.1730    0.0000 N   0  0  0  0  0  0  0  0  0  0  0  0
   -0.7145   -2.8875    0.0000 C   0  0  0  0  0  0  0  0  0  0  0  0
   -1.5395   -2.8875    0.0000 C   0  0  0  0  0  0  0  0  0  0  0  0
    0.5230   -2.1730    0.0000 C   0  0  0  0  0  0  0  0  0  0  0  0
    0.9355   -2.8875    0.0000 C   0  0  0  0  0  0  0  0  0  0  0  0
    0.5230   -3.6020    0.0000 O   0  0  0  0  0  0  0  0  0  0  0  0
    1.7605   -2.8875    0.0000 N   0  0  0  0  0  0  0  0  0  0  0  0
    2.1730   -3.6020    0.0000 C   0  0  0  0  0  0  0  0  0  0  0  0
    2.9980   -3.6020    0.0000 C   0  0  0  0  0  0  0  0  0  0  0  0
    3.4105   -2.8875    0.0000 C   0  0  0  0  0  0  0  0  0  0  0  0
    3.4105   -4.3164    0.0000 C   0  0  0  0  0  0  0  0  0  0  0  0
    2.9980   -5.0309    0.0000 C   0  0  0  0  0  0  0  0  0  0  0  0
    2.1730   -5.0309    0.0000 C   0  0  0  0  0  0  0  0  0  0  0  0
    1.7605   -4.3164    0.0000 C   0  0  0  0  0  0  0  0  0  0  0  0
    0.9355   -4.3164    0.0000 C   0  0  0  0  0  0  0  0  0  0  0  0
  1  2  1  0  0  0  0
  2  3  1  0  0  0  0
  3  4  1  0  0  0  0
  4  5  1  0  0  0  0
  3  6  1  0  0  0  0
  6  7  1  0  0  0  0
  7  8  2  0  0  0  0
  7  9  1  0  0  0  0
  9 10  1  0  0  0  0
 10 11  4  0  0  0  0
 11 12  1  0  0  0  0
 11 13  4  0  0  0  0
 13 14  4  0  0  0  0
 14 15  4  0  0  0  0
 15 16  4  0  0  0  0
 10 16  4  0  0  0  0
 16 17  1  0  0  0  0
M  END

> <ChembankId>
362

> <SMILES>
CCN(CC)CC(=O)Nc1c(C)cccc1C

> <InChI>
1/C14H22N2O/c1-5-16(6-2)10-13(17)15-14-11(3)8-7-9-12(14)4/h7-9H,5-6,10H2,1-4H3,(H,15,17)

$$$$
363
  Marvin  11101114192D          

 14 16  0  0  0  0            999 V2000
    1.1671   -2.7154    0.0000 C   0  0  0  0  0  0  0  0  0  0  0  0
    1.6411   -2.0402    0.0000 C   0  0  0  0  0  0  0  0  0  0  0  0
    0.9106   -1.6699    0.0000 C   0  0  0  0  0  0  0  0  0  0  0  0
    0.1351   -2.0602    0.0000 C   0  0  0  0  0  0  0  0  0  0  0  0
    0.5004   -1.3997    0.0000 C   0  0  0  0  0  0  0  0  0  0  0  0
    1.1407   -0.9495    0.0000 C   0  0  0  0  0  0  0  0  0  0  0  0
    0.9807   -0.1341    0.0000 O   0  0  0  0  0  0  0  0  0  0  0  0
    1.9932   -1.2941    0.0000 C   0  0  0  0  0  0  0  0  0  0  0  0
    2.2016   -0.4959    0.0000 C   0  0  0  0  0  0  0  0  0  0  0  0
    2.8115   -1.3984    0.0000 C   0  0  0  0  0  0  0  0  0  0  0  0
    3.3769   -0.7976    0.0000 O   0  0  0  0  0  0  0  0  0  0  0  0
    2.9653   -2.2089    0.0000 O   0  0  0  0  0  0  0  0  0  0  0  0
    2.2419   -2.6056    0.0000 C   0  0  0  0  0  0  0  0  0  0  0  0
    2.1376   -3.4240    0.0000 O   0  0  0  0  0  0  0  0  0  0  0  0
  1  2  1  0  0  0  0
  2  3  1  0  0  0  0
  3  4  1  0  0  0  0
  4  5  1  0  0  0  0
  5  6  1  0  0  0  0
  6  7  1  0  0  0  0
  3  7  1  0  0  0  0
  6  8  1  0  0  0  0
  2  8  1  0  0  0  0
  8  9  1  0  0  0  0
  8 10  1  0  0  0  0
 10 11  2  0  0  0  0
 10 12  1  0  0  0  0
 12 13  1  0  0  0  0
  2 13  1  0  0  0  0
 13 14  2  0  0  0  0
M  END

> <ChembankId>
363

> <SMILES>
CC12C3CCC(O3)C2(C)C(=O)OC1=O

> <InChI>
1/C10H12O4/c1-9-5-3-4-6(13-5)10(9,2)8(12)14-7(9)11/h5-6H,3-4H2,1-2H3

$$$$
368
  Marvin  11101114192D          

 28 30  0  0  0  0            999 V2000
   -0.7145   -1.2375    0.0000 C   0  0  0  0  0  0  0  0  0  0  0  0
    0.0000   -1.6500    0.0000 C   0  0  0  0  0  0  0  0  0  0  0  0
    0.7145   -1.2375    0.0000 C   0  0  0  0  0  0  0  0  0  0  0  0
    1.4289   -1.6500    0.0000 C   0  0  0  0  0  0  0  0  0  0  0  0
    1.4289   -2.4750    0.0000 C   0  0  0  0  0  0  0  0  0  0  0  0
    2.1434   -2.8875    0.0000 C   0  0  0  0  0  0  0  0  0  0  0  0
    2.1434   -3.7125    0.0000 C   0  0  0  0  0  0  0  0  0  0  0  0
    1.4289   -4.1250    0.0000 C   0  0  0  0  0  0  0  0  0  0  0  0
    0.7145   -3.7125    0.0000 C   0  0  0  0  0  0  0  0  0  0  0  0
    0.7145   -2.8875    0.0000 C   0  0  0  0  0  0  0  0  0  0  0  0
    2.1434   -1.2375    0.0000 C   0  0  0  0  0  0  0  0  0  0  0  0
    2.1434   -0.4125    0.0000 C   0  0  0  0  0  0  0  0  0  0  0  0
    2.8579    0.0000    0.0000 C   0  0  0  0  0  0  0  0  0  0  0  0
    3.5724   -0.4125    0.0000 C   0  0  0  0  0  0  0  0  0  0  0  0
    4.2868    0.0000    0.0000 O   0  0  0  0  0  0  0  0  0  0  0  0
    5.0013   -0.4125    0.0000 C   0  0  0  0  0  0  0  0  0  0  0  0
    5.7158    0.0000    0.0000 C   0  0  0  0  0  0  0  0  0  0  0  0
    6.4302   -0.4125    0.0000 N   0  0  0  0  0  0  0  0  0  0  0  0
    7.1447    0.0000    0.0000 C   0  0  0  0  0  0  0  0  0  0  0  0
    6.4302   -1.2375    0.0000 C   0  0  0  0  0  0  0  0  0  0  0  0
    3.5724   -1.2375    0.0000 C   0  0  0  0  0  0  0  0  0  0  0  0
    2.8579   -1.6500    0.0000 C   0  0  0  0  0  0  0  0  0  0  0  0
    0.7145   -0.4125    0.0000 C   0  0  0  0  0  0  0  0  0  0  0  0
   -0.0000   -0.0000    0.0000 C   0  0  0  0  0  0  0  0  0  0  0  0
   -0.0000    0.8250    0.0000 C   0  0  0  0  0  0  0  0  0  0  0  0
    0.7145    1.2375    0.0000 C   0  0  0  0  0  0  0  0  0  0  0  0
    1.4289    0.8250    0.0000 C   0  0  0  0  0  0  0  0  0  0  0  0
    1.4289   -0.0000    0.0000 C   0  0  0  0  0  0  0  0  0  0  0  0
  1  2  1  0  0  0  0
  2  3  1  0  0  0  0
  3  4  2  0  0  0  0
  4  5  1  0  0  0  0
  5  6  4  0  0  0  0
  6  7  4  0  0  0  0
  7  8  4  0  0  0  0
  8  9  4  0  0  0  0
  9 10  4  0  0  0  0
  5 10  4  0  0  0  0
  4 11  1  0  0  0  0
 11 12  4  0  0  0  0
 12 13  4  0  0  0  0
 13 14  4  0  0  0  0
 14 15  1  0  0  0  0
 15 16  1  0  0  0  0
 16 17  1  0  0  0  0
 17 18  1  0  0  0  0
 18 19  1  0  0  0  0
 18 20  1  0  0  0  0
 14 21  4  0  0  0  0
 21 22  4  0  0  0  0
 11 22  4  0  0  0  0
  3 23  1  0  0  0  0
 23 24  4  0  0  0  0
 24 25  4  0  0  0  0
 25 26  4  0  0  0  0
 26 27  4  0  0  0  0
 27 28  4  0  0  0  0
 23 28  4  0  0  0  0
M  END

> <ChembankId>
368

> <SMILES>
CC/C(=C(\c1ccccc1)/c2ccc(OCCN(C)C)cc2)/c3ccccc3

> <InChI>
1/C26H29NO/c1-4-25(21-11-7-5-8-12-21)26(22-13-9-6-10-14-22)23-15-17-24(18-16-23)28-20-19-27(2)3/h5-18H,4,19-20H2,1-3H3

$$$$
370
  Marvin  11101114192D          

 19 21  0  0  0  0            999 V2000
    0.8838   -2.1500    0.0000 O   0  0  0  0  0  0  0  0  0  0  0  0
    1.1387   -1.3654    0.0000 C   0  0  0  0  0  0  0  0  0  0  0  0
    0.6538   -0.6979    0.0000 N   0  0  0  0  0  0  0  0  0  0  0  0
   -0.1712   -0.6979    0.0000 C   0  0  0  0  0  0  0  0  0  0  0  0
   -0.5837   -1.4124    0.0000 C   0  0  0  0  0  0  0  0  0  0  0  0
   -1.4087   -1.4124    0.0000 C   0  0  0  0  0  0  0  0  0  0  0  0
   -1.8212   -0.6979    0.0000 C   0  0  0  0  0  0  0  0  0  0  0  0
   -2.6462   -0.6979    0.0000 O   0  0  0  0  0  0  0  0  0  0  0  0
   -1.4087    0.0165    0.0000 N   0  0  0  0  0  0  0  0  0  0  0  0
   -0.5837    0.0165    0.0000 C   0  0  0  0  0  0  0  0  0  0  0  0
   -0.1712    0.7310    0.0000 O   0  0  0  0  0  0  0  0  0  0  0  0
    1.1387   -0.0305    0.0000 C   0  0  0  0  0  0  0  0  0  0  0  0
    0.8838    0.7541    0.0000 O   0  0  0  0  0  0  0  0  0  0  0  0
    1.9233   -0.2854    0.0000 C   0  0  0  0  0  0  0  0  0  0  0  0
    2.6378    0.1271    0.0000 C   0  0  0  0  0  0  0  0  0  0  0  0
    3.3523   -0.2854    0.0000 C   0  0  0  0  0  0  0  0  0  0  0  0
    3.3523   -1.1104    0.0000 C   0  0  0  0  0  0  0  0  0  0  0  0
    2.6378   -1.5229    0.0000 C   0  0  0  0  0  0  0  0  0  0  0  0
    1.9233   -1.1104    0.0000 C   0  0  0  0  0  0  0  0  0  0  0  0
  1  2  2  0  0  0  0
  2  3  1  0  0  0  0
  3  4  1  0  0  0  0
  4  5  1  0  0  0  0
  5  6  1  0  0  0  0
  6  7  1  0  0  0  0
  7  8  2  0  0  0  0
  7  9  1  0  0  0  0
  9 10  1  0  0  0  0
  4 10  1  0  0  0  0
 10 11  2  0  0  0  0
  3 12  1  0  0  0  0
 12 13  2  0  0  0  0
 12 14  1  0  0  0  0
 14 15  4  0  0  0  0
 15 16  4  0  0  0  0
 16 17  4  0  0  0  0
 17 18  4  0  0  0  0
 18 19  4  0  0  0  0
  2 19  1  0  0  0  0
 14 19  4  0  0  0  0
M  END

> <ChembankId>
370

> <SMILES>
O=C1N(C2CCC(=O)NC2=O)C(=O)c3ccccc13

> <InChI>
1/C13H10N2O4/c16-10-6-5-9(11(17)14-10)15-12(18)7-3-1-2-4-8(7)13(15)19/h1-4,9H,5-6H2,(H,14,16,17)

$$$$
2431
  Marvin  11101114192D          

 17 17  0  0  0  0            999 V2000
   -3.5724    2.0625    0.0000 C   0  0  0  0  0  0  0  0  0  0  0  0
   -2.8579    1.6500    0.0000 C   0  0  0  0  0  0  0  0  0  0  0  0
   -2.1434    2.0625    0.0000 N   0  0  0  0  0  0  0  0  0  0  0  0
   -2.1434    2.8875    0.0000 C   0  0  0  0  0  0  0  0  0  0  0  0
   -1.4289    3.3000    0.0000 C   0  0  0  0  0  0  0  0  0  0  0  0
   -1.4289    1.6500    0.0000 C   0  0  0  0  0  0  0  0  0  0  0  0
   -0.7145    2.0625    0.0000 C   0  0  0  0  0  0  0  0  0  0  0  0
   -0.0000    1.6500    0.0000 N   0  0  0  0  0  0  0  0  0  0  0  0
    0.7145    2.0625    0.0000 C   0  0  0  0  0  0  0  0  0  0  0  0
    1.4289    1.6500    0.0000 O   0  0  0  0  0  0  0  0  0  0  0  0
    0.7145    2.8875    0.0000 C   0  0  0  0  0  0  0  0  0  0  0  0
   -0.0000    3.3000    0.0000 C   0  0  0  0  0  0  0  0  0  0  0  0
   -0.0000    4.1250    0.0000 C   0  0  0  0  0  0  0  0  0  0  0  0
    0.7145    4.5375    0.0000 C   0  0  0  0  0  0  0  0  0  0  0  0
    0.7145    5.3625    0.0000 N   0  0  0  0  0  0  0  0  0  0  0  0
    1.4289    4.1250    0.0000 C   0  0  0  0  0  0  0  0  0  0  0  0
    1.4289    3.3000    0.0000 C   0  0  0  0  0  0  0  0  0  0  0  0
  1  2  1  0  0  0  0
  2  3  1  0  0  0  0
  3  4  1  0  0  0  0
  4  5  1  0  0  0  0
  3  6  1  0  0  0  0
  6  7  1  0  0  0  0
  7  8  1  0  0  0  0
  8  9  1  0  0  0  0
  9 10  2  0  0  0  0
  9 11  1  0  0  0  0
 11 12  4  0  0  0  0
 12 13  4  0  0  0  0
 13 14  4  0  0  0  0
 14 15  1  0  0  0  0
 14 16  4  0  0  0  0
 16 17  4  0  0  0  0
 11 17  4  0  0  0  0
M  END

> <ChembankId>
2431

> <SMILES>
CCN(CC)CCNC(=O)c1ccc(N)cc1

> <InChI>
1/C13H21N3O/c1-3-16(4-2)10-9-15-13(17)11-5-7-12(14)8-6-11/h5-8H,3-4,9-10,14H2,1-2H3,(H,15,17)

$$$$
383
  Marvin  11101114192D          

 26 30  0  0  1  0            999 V2000
    0.9156   -2.9674    0.0000 C   0  0  0  0  0  0  0  0  0  0  0  0
    1.7326   -3.0822    0.0000 C   0  0  0  0  0  0  0  0  0  0  0  0
    2.0416   -3.8471    0.0000 C   0  0  1  0  0  0  0  0  0  0  0  0
    2.7412   -3.4100    0.0000 O   0  0  0  0  0  0  0  0  0  0  0  0
    1.2346   -4.0187    0.0000 C   0  0  0  0  0  0  0  0  0  0  0  0
    0.6826   -3.4056    0.0000 O   0  0  0  0  0  0  0  0  0  0  0  0
    0.9797   -4.8033    0.0000 O   0  0  0  0  0  0  0  0  0  0  0  0
    1.5317   -5.4164    0.0000 C   0  0  0  0  0  0  0  0  0  0  0  0
    2.3387   -5.2449    0.0000 C   0  0  0  0  0  0  0  0  0  0  0  0
    2.5936   -4.4602    0.0000 C   0  0  0  0  0  0  0  0  0  0  0  0
    3.4006   -4.2887    0.0000 C   0  0  0  0  0  0  0  0  0  0  0  0
    3.9526   -4.9018    0.0000 C   0  0  0  0  0  0  0  0  0  0  0  0
    4.7776   -4.9018    0.0000 C   0  0  0  0  0  0  0  0  0  0  0  0
    5.3297   -4.2887    0.0000 N   0  0  0  0  0  0  0  0  0  0  0  0
    6.1366   -4.4602    0.0000 C   0  0  0  0  0  0  0  0  0  0  0  0
    6.6887   -3.8471    0.0000 C   0  0  0  0  0  0  0  0  0  0  0  0
    7.4956   -4.0187    0.0000 C   0  0  0  0  0  0  0  0  0  0  0  0
    7.7506   -4.8033    0.0000 C   0  0  0  0  0  0  0  0  0  0  0  0
    7.1986   -5.4164    0.0000 C   0  0  0  0  0  0  0  0  0  0  0  0
    6.3916   -5.2449    0.0000 C   0  0  0  0  0  0  0  0  0  0  0  0
    5.8395   -5.8579    0.0000 C   0  0  0  0  0  0  0  0  0  0  0  0
    5.0326   -5.6864    0.0000 C   0  0  0  0  0  0  0  0  0  0  0  0
    4.3651   -6.1713    0.0000 C   0  0  0  0  0  0  0  0  0  0  0  0
    3.6977   -5.6864    0.0000 N   0  0  0  0  0  0  0  0  0  0  0  0
    2.8907   -5.8579    0.0000 C   0  0  0  0  0  0  0  0  0  0  0  0
    2.6358   -6.6426    0.0000 O   0  0  0  0  0  0  0  0  0  0  0  0
  1  2  1  0  0  0  0
  3  2  1  6  0  0  0
  3  4  1  1  0  0  0
  3  5  1  0  0  0  0
  5  6  2  0  0  0  0
  5  7  1  0  0  0  0
  7  8  1  0  0  0  0
  8  9  1  0  0  0  0
  9 10  4  0  0  0  0
  3 10  1  0  0  0  0
 10 11  4  0  0  0  0
 11 12  4  0  0  0  0
 12 13  1  0  0  0  0
 13 14  4  0  0  0  0
 14 15  4  0  0  0  0
 15 16  4  0  0  0  0
 16 17  4  0  0  0  0
 17 18  4  0  0  0  0
 18 19  4  0  0  0  0
 19 20  4  0  0  0  0
 15 20  4  0  0  0  0
 20 21  4  0  0  0  0
 21 22  4  0  0  0  0
 13 22  4  0  0  0  0
 22 23  1  0  0  0  0
 23 24  1  0  0  0  0
 12 24  4  0  0  0  0
 24 25  4  0  0  0  0
  9 25  4  0  0  0  0
 25 26  2  0  0  0  0
M  END

> <ChembankId>
383

> <SMILES>
CC[C@@]1(O)C(=O)OCc2c1cc3-c4nc5ccccc5cc4Cn3c2=O

> <InChI>
1/C20H16N2O4/c1-2-20(25)14-8-16-17-12(7-11-5-3-4-6-15(11)21-17)9-22(16)18(23)13(14)10-26-19(20)24/h3-8,25H,2,9-10H2,1H3

$$$$
386
  Marvin  11101114192D          

 20 23  0  0  1  0            999 V2000
    3.5330   -3.2587    0.0000 C   0  0  0  0  0  0  0  0  0  0  0  0
    3.8928   -2.5163    0.0000 C   0  0  2  0  0  0  0  0  0  0  0  0
    4.4247   -3.1470    0.0000 C   0  0  0  0  0  0  0  0  0  0  0  0
    5.2368   -3.0018    0.0000 C   0  0  0  0  0  0  0  0  0  0  0  0
    5.5171   -2.2259    0.0000 C   0  0  1  0  0  0  0  0  0  0  0  0
    4.9853   -1.5952    0.0000 C   0  0  1  0  0  0  0  0  0  0  0  0
    5.2655   -0.8192    0.0000 C   0  0  0  0  0  0  0  0  0  0  0  0
    6.0777   -0.6740    0.0000 C   0  0  0  0  0  0  0  0  0  0  0  0
    6.6095   -1.3047    0.0000 C   0  0  0  0  0  0  0  0  0  0  0  0
    7.4216   -1.1595    0.0000 C   0  0  0  0  0  0  0  0  0  0  0  0
    7.9534   -1.7902    0.0000 C   0  0  0  0  0  0  0  0  0  0  0  0
    8.7655   -1.6450    0.0000 O   0  0  0  0  0  0  0  0  0  0  0  0
    7.6731   -2.5662    0.0000 C   0  0  0  0  0  0  0  0  0  0  0  0
    6.8610   -2.7114    0.0000 C   0  0  0  0  0  0  0  0  0  0  0  0
    6.3292   -2.0807    0.0000 C   0  0  0  0  0  0  0  0  0  0  0  0
    4.1731   -1.7404    0.0000 C   0  0  2  0  0  0  0  0  0  0  0  0
    3.5218   -1.2340    0.0000 C   0  0  0  0  0  0  0  0  0  0  0  0
    2.8390   -1.6970    0.0000 C   0  0  0  0  0  0  0  0  0  0  0  0
    3.0683   -2.4895    0.0000 C   0  0  2  0  0  0  0  0  0  0  0  0
    2.5619   -3.1408    0.0000 O   0  0  0  0  0  0  0  0  0  0  0  0
  2  1  1  1  0  0  0
  2  3  1  0  0  0  0
  3  4  1  0  0  0  0
  4  5  1  0  0  0  0
  5  6  1  0  0  0  0
  6  7  1  6  0  0  0
  7  8  1  0  0  0  0
  8  9  1  0  0  0  0
  9 10  4  0  0  0  0
 10 11  4  0  0  0  0
 11 12  1  0  0  0  0
 11 13  4  0  0  0  0
 13 14  4  0  0  0  0
 14 15  4  0  0  0  0
  5 15  1  1  0  0  0
  9 15  4  0  0  0  0
  6 16  1  0  0  0  0
  2 16  1  0  0  0  0
 16 17  1  1  0  0  0
 17 18  1  0  0  0  0
 18 19  1  0  0  0  0
  2 19  1  0  0  0  0
 19 20  1  1  0  0  0
M  END

> <ChembankId>
386

> <SMILES>
C[C@@]12CC[C@H]3[C@@H](CCc4cc(O)ccc34)[C@@H]2CC[C@@H]1O

> <InChI>
1/C18H24O2/c1-18-9-8-14-13-5-3-12(19)10-11(13)2-4-15(14)16(18)6-7-17(18)20/h3,5,10,14-17,19-20H,2,4,6-9H2,1H3

$$$$
387
  Marvin  11101114192D          

 48 47  0  0  1  0            999 V2000
   25.9499    8.3822    0.0000 C   0  0  0  0  0  0  0  0  0  0  0  0
   25.2355    8.7947    0.0000 C   0  0  0  0  0  0  0  0  0  0  0  0
   25.2355    9.6197    0.0000 C   0  0  0  0  0  0  0  0  0  0  0  0
   24.5210    8.3822    0.0000 C   0  0  0  0  0  0  0  0  0  0  0  0
   24.5210    7.5572    0.0000 C   0  0  2  0  0  0  0  0  0  0  0  0
   23.8065    7.1447    0.0000 N   0  0  0  0  0  0  0  0  0  0  0  0
   23.0921    7.5572    0.0000 C   0  0  0  0  0  0  0  0  0  0  0  0
   23.0921    8.3822    0.0000 O   0  0  0  0  0  0  0  0  0  0  0  0
   22.3776    7.1447    0.0000 C   0  0  2  0  0  0  0  0  0  0  0  0
   22.3776    6.3197    0.0000 C   0  0  0  0  0  0  0  0  0  0  0  0
   21.6631    7.5572    0.0000 N   0  0  0  0  0  0  0  0  0  0  0  0
   20.9487    7.1447    0.0000 C   0  0  0  0  0  0  0  0  0  0  0  0
   20.9487    6.3197    0.0000 O   0  0  0  0  0  0  0  0  0  0  0  0
   20.2342    7.5572    0.0000 C   0  0  0  0  0  0  0  0  0  0  0  0
   19.5197    7.1447    0.0000 C   0  0  2  0  0  0  0  0  0  0  0  0
   19.5197    6.3197    0.0000 O   0  0  0  0  0  0  0  0  0  0  0  0
   18.8052    7.5572    0.0000 C   0  0  2  0  0  0  0  0  0  0  0  0
   18.8052    8.3822    0.0000 C   0  0  0  0  0  0  0  0  0  0  0  0
   19.5197    8.7947    0.0000 C   0  0  0  0  0  0  0  0  0  0  0  0
   19.5197    9.6197    0.0000 C   0  0  0  0  0  0  0  0  0  0  0  0
   20.2342    8.3822    0.0000 C   0  0  0  0  0  0  0  0  0  0  0  0
   18.0908    7.1447    0.0000 N   0  0  0  0  0  0  0  0  0  0  0  0
   17.3763    7.5572    0.0000 C   0  0  0  0  0  0  0  0  0  0  0  0
   17.3763    8.3822    0.0000 O   0  0  0  0  0  0  0  0  0  0  0  0
   16.6618    7.1447    0.0000 C   0  0  1  0  0  0  0  0  0  0  0  0
   15.9474    7.5572    0.0000 N   0  0  0  0  0  0  0  0  0  0  0  0
   15.2329    7.1447    0.0000 C   0  0  0  0  0  0  0  0  0  0  0  0
   15.2329    6.3197    0.0000 O   0  0  0  0  0  0  0  0  0  0  0  0
   14.5184    7.5572    0.0000 C   0  0  1  0  0  0  0  0  0  0  0  0
   13.8039    7.1447    0.0000 N   0  0  0  0  0  0  0  0  0  0  0  0
   13.0895    7.5572    0.0000 C   0  0  0  0  0  0  0  0  0  0  0  0
   13.0895    8.3822    0.0000 O   0  0  0  0  0  0  0  0  0  0  0  0
   12.3750    7.1447    0.0000 C   0  0  0  0  0  0  0  0  0  0  0  0
   11.6605    7.5572    0.0000 C   0  0  0  0  0  0  0  0  0  0  0  0
   10.9461    7.1447    0.0000 C   0  0  0  0  0  0  0  0  0  0  0  0
   11.6605    8.3822    0.0000 C   0  0  0  0  0  0  0  0  0  0  0  0
   14.5184    8.3822    0.0000 C   0  0  0  0  0  0  0  0  0  0  0  0
   13.8039    8.7947    0.0000 C   0  0  0  0  0  0  0  0  0  0  0  0
   15.2329    8.7947    0.0000 C   0  0  0  0  0  0  0  0  0  0  0  0
   16.6618    6.3197    0.0000 C   0  0  0  0  0  0  0  0  0  0  0  0
   15.9474    5.9072    0.0000 C   0  0  0  0  0  0  0  0  0  0  0  0
   17.3763    5.9072    0.0000 C   0  0  0  0  0  0  0  0  0  0  0  0
   25.2355    7.1447    0.0000 C   0  0  1  0  0  0  0  0  0  0  0  0
   25.2355    6.3197    0.0000 O   0  0  0  0  0  0  0  0  0  0  0  0
   25.9499    7.5572    0.0000 C   0  0  0  0  0  0  0  0  0  0  0  0
   26.6644    7.1447    0.0000 C   0  0  0  0  0  0  0  0  0  0  0  0
   27.3789    7.5572    0.0000 O   0  0  0  0  0  0  0  0  0  0  0  0
   26.6644    6.3197    0.0000 O   0  0  0  0  0  0  0  0  0  0  0  0
  1  2  1  0  0  0  0
  2  3  1  0  0  0  0
  2  4  1  0  0  0  0
  4  5  1  0  0  0  0
  5  6  1  1  0  0  0
  6  7  1  0  0  0  0
  7  8  2  0  0  0  0
  7  9  1  0  0  0  0
  9 10  1  6  0  0  0
  9 11  1  0  0  0  0
 11 12  1  0  0  0  0
 12 13  2  0  0  0  0
 12 14  1  0  0  0  0
 14 15  1  0  0  0  0
 15 16  1  6  0  0  0
 15 17  1  0  0  0  0
 17 18  1  0  0  0  0
 18 19  1  0  0  0  0
 19 20  1  0  0  0  0
 19 21  1  0  0  0  0
 17 22  1  1  0  0  0
 22 23  1  0  0  0  0
 23 24  2  0  0  0  0
 23 25  1  0  0  0  0
 25 26  1  6  0  0  0
 26 27  1  0  0  0  0
 27 28  2  0  0  0  0
 27 29  1  0  0  0  0
 29 30  1  1  0  0  0
 30 31  1  0  0  0  0
 31 32  2  0  0  0  0
 31 33  1  0  0  0  0
 33 34  1  0  0  0  0
 34 35  1  0  0  0  0
 34 36  1  0  0  0  0
 29 37  1  0  0  0  0
 37 38  1  0  0  0  0
 37 39  1  0  0  0  0
 25 40  1  0  0  0  0
 40 41  1  0  0  0  0
 40 42  1  0  0  0  0
  5 43  1  0  0  0  0
 43 44  1  6  0  0  0
 43 45  1  0  0  0  0
 45 46  1  0  0  0  0
 46 47  2  0  0  0  0
 46 48  1  0  0  0  0
M  END

> <ChembankId>
387

> <SMILES>
CC(C)C[C@H](NC(=O)[C@H](C)NC(=O)C[C@H](O)[C@H](CC(C)C)NC(=O)[C@@H](NC(=O)[C@@H](NC(=O)CC(C)C)C(C)C)C(C)C)[C@@H](O)CC(=O)O

> <InChI>
1/C34H63N5O9/c1-17(2)12-23(37-33(47)31(21(9)10)39-34(48)30(20(7)8)38-27(42)14-19(5)6)25(40)15-28(43)35-22(11)32(46)36-24(13-18(3)4)26(41)16-29(44)45/h17-26,30-31,40-41H,12-16H2,1-11H3,(H,35,43)(H,36,46)(H,37,47)(H,38,42)(H,39,48)(H,44,45)

$$$$
399
  Marvin  11101114192D          

 15 16  0  0  0  0            999 V2000
   -0.1712   -0.6979    0.0000 N   0  0  0  0  0  0  0  0  0  0  0  0
    0.6538   -0.6979    0.0000 C   0  0  0  0  0  0  0  0  0  0  0  0
    1.1387   -0.0305    0.0000 N   0  0  0  0  0  0  0  0  0  0  0  0
    1.9233   -0.2854    0.0000 C   0  0  0  0  0  0  0  0  0  0  0  0
    2.6378    0.1271    0.0000 C   0  0  0  0  0  0  0  0  0  0  0  0
    3.3523   -0.2854    0.0000 C   0  0  0  0  0  0  0  0  0  0  0  0
    3.3523   -1.1104    0.0000 C   0  0  0  0  0  0  0  0  0  0  0  0
    4.0668   -1.5229    0.0000 O   0  0  0  0  0  0  0  0  0  0  0  0
    4.7812   -1.1104    0.0000 C   0  0  0  0  0  0  0  0  0  0  0  0
    5.4957   -0.6979    0.0000 F   0  0  0  0  0  0  0  0  0  0  0  0
    5.1937   -1.8249    0.0000 F   0  0  0  0  0  0  0  0  0  0  0  0
    4.3687   -0.3960    0.0000 F   0  0  0  0  0  0  0  0  0  0  0  0
    2.6378   -1.5229    0.0000 C   0  0  0  0  0  0  0  0  0  0  0  0
    1.9233   -1.1104    0.0000 C   0  0  0  0  0  0  0  0  0  0  0  0
    1.1387   -1.3654    0.0000 S   0  0  0  0  0  0  0  0  0  0  0  0
  1  2  1  0  0  0  0
  2  3  4  0  0  0  0
  3  4  4  0  0  0  0
  4  5  4  0  0  0  0
  5  6  4  0  0  0  0
  6  7  4  0  0  0  0
  7  8  1  0  0  0  0
  8  9  1  0  0  0  0
  9 10  1  0  0  0  0
  9 11  1  0  0  0  0
  9 12  1  0  0  0  0
  7 13  4  0  0  0  0
 13 14  4  0  0  0  0
  4 14  4  0  0  0  0
 14 15  4  0  0  0  0
  2 15  4  0  0  0  0
M  END

> <ChembankId>
399

> <SMILES>
Nc1nc2ccc(OC(F)(F)F)cc2s1

> <InChI>
1/C8H5F3N2OS/c9-8(10,11)14-4-1-2-5-6(3-4)15-7(12)13-5/h1-3H,(H2,12,13)

$$$$
403
  Marvin  11101114192D          

 34 37  0  0  1  0            999 V2000
   -3.6468   -8.6009    0.0000 C   0  0  0  0  0  0  0  0  0  0  0  0
   -3.7330   -7.7804    0.0000 O   0  0  0  0  0  0  0  0  0  0  0  0
   -3.0656   -7.2955    0.0000 C   0  0  0  0  0  0  0  0  0  0  0  0
   -3.1518   -6.4750    0.0000 C   0  0  0  0  0  0  0  0  0  0  0  0
   -2.4844   -5.9901    0.0000 C   0  0  0  0  0  0  0  0  0  0  0  0
   -1.7307   -6.3257    0.0000 C   0  0  0  0  0  0  0  0  0  0  0  0
   -1.0632   -5.8407    0.0000 C   0  0  0  0  0  0  0  0  0  0  0  0
   -1.1495   -5.0203    0.0000 C   0  0  0  0  0  0  0  0  0  0  0  0
   -1.9032   -4.6847    0.0000 N   0  0  0  0  0  0  0  0  0  0  0  0
   -0.4820   -4.5353    0.0000 C   0  0  0  0  0  0  0  0  0  0  0  0
    0.2716   -4.8709    0.0000 O   0  0  0  0  0  0  0  0  0  0  0  0
   -0.5683   -3.7149    0.0000 N   0  0  0  0  0  0  0  0  0  0  0  0
    0.0992   -3.2299    0.0000 C   0  0  2  0  0  0  0  0  0  0  0  0
    0.0992   -2.4049    0.0000 C   0  0  1  0  0  0  0  0  0  0  0  0
   -0.5683   -1.9200    0.0000 O   0  0  0  0  0  0  0  0  0  0  0  0
    0.8838   -2.1500    0.0000 C   0  0  1  0  0  0  0  0  0  0  0  0
    1.3687   -2.8174    0.0000 O   0  0  0  0  0  0  0  0  0  0  0  0
    0.8838   -3.4849    0.0000 C   0  0  2  0  0  0  0  0  0  0  0  0
    1.1387   -4.2695    0.0000 C   0  0  0  0  0  0  0  0  0  0  0  0
    1.9457   -4.4410    0.0000 O   0  0  0  0  0  0  0  0  0  0  0  0
    1.1387   -1.3654    0.0000 N   0  0  0  0  0  0  0  0  0  0  0  0
    0.6538   -0.6979    0.0000 C   0  0  0  0  0  0  0  0  0  0  0  0
    1.1387   -0.0305    0.0000 N   0  0  0  0  0  0  0  0  0  0  0  0
    1.9233   -0.2854    0.0000 C   0  0  0  0  0  0  0  0  0  0  0  0
    2.6378    0.1271    0.0000 C   0  0  0  0  0  0  0  0  0  0  0  0
    3.3523   -0.2854    0.0000 N   0  0  0  0  0  0  0  0  0  0  0  0
    3.3523   -1.1104    0.0000 C   0  0  0  0  0  0  0  0  0  0  0  0
    2.6378   -1.5229    0.0000 N   0  0  0  0  0  0  0  0  0  0  0  0
    1.9233   -1.1104    0.0000 C   0  0  0  0  0  0  0  0  0  0  0  0
    2.6378    0.9521    0.0000 N   0  0  0  0  0  0  0  0  0  0  0  0
    1.9233    1.3646    0.0000 C   0  0  0  0  0  0  0  0  0  0  0  0
    3.3523    1.3646    0.0000 C   0  0  0  0  0  0  0  0  0  0  0  0
   -1.6444   -7.1462    0.0000 C   0  0  0  0  0  0  0  0  0  0  0  0
   -2.3119   -7.6311    0.0000 C   0  0  0  0  0  0  0  0  0  0  0  0
  1  2  1  0  0  0  0
  2  3  1  0  0  0  0
  3  4  4  0  0  0  0
  4  5  4  0  0  0  0
  5  6  4  0  0  0  0
  6  7  1  0  0  0  0
  7  8  1  0  0  0  0
  8  9  1  0  0  0  0
  8 10  1  0  0  0  0
 10 11  2  0  0  0  0
 10 12  1  0  0  0  0
 13 12  1  6  0  0  0
 13 14  1  0  0  0  0
 14 15  1  1  0  0  0
 14 16  1  0  0  0  0
 16 17  1  0  0  0  0
 17 18  1  0  0  0  0
 13 18  1  0  0  0  0
 18 19  1  6  0  0  0
 19 20  1  0  0  0  0
 16 21  1  6  0  0  0
 21 22  4  0  0  0  0
 22 23  4  0  0  0  0
 23 24  4  0  0  0  0
 24 25  4  0  0  0  0
 25 26  4  0  0  0  0
 26 27  4  0  0  0  0
 27 28  4  0  0  0  0
 28 29  4  0  0  0  0
 21 29  4  0  0  0  0
 24 29  4  0  0  0  0
 25 30  1  0  0  0  0
 30 31  1  0  0  0  0
 30 32  1  0  0  0  0
  6 33  4  0  0  0  0
 33 34  4  0  0  0  0
  3 34  4  0  0  0  0
M  END

> <ChembankId>
403

> <SMILES>
COc1ccc(CC(N)C(=O)N[C@@H]2[C@@H](O)[C@@H](O[C@@H]2CO)n3cnc4c(ncnc34)N(C)C)cc1

> <InChI>
1/C22H29N7O5/c1-28(2)19-17-20(25-10-24-19)29(11-26-17)22-18(31)16(15(9-30)34-22)27-21(32)14(23)8-12-4-6-13(33-3)7-5-12/h4-7,10-11,14-16,18,22,30-31H,8-9,23H2,1-3H3,(H,27,32)/t14-,15+,16-,18-,22+/m0/s1

$$$$
404
  Marvin  11101114192D          

 25 26  0  0  0  0            999 V2000
    0.0000   -4.1250    0.0000 C   0  0  0  0  0  0  0  0  0  0  0  0
    0.7145   -3.7125    0.0000 C   0  0  0  0  0  0  0  0  0  0  0  0
    1.4289   -4.1250    0.0000 C   0  0  0  0  0  0  0  0  0  0  0  0
    2.1434   -3.7125    0.0000 C   0  0  0  0  0  0  0  0  0  0  0  0
    2.8579   -4.1250    0.0000 N   0  0  0  0  0  0  0  0  0  0  0  0
    3.5724   -3.7125    0.0000 C   0  0  0  0  0  0  0  0  0  0  0  0
    3.5724   -2.8875    0.0000 C   0  0  0  0  0  0  0  0  0  0  0  0
    4.2868   -2.4750    0.0000 C   0  0  0  0  0  0  0  0  0  0  0  0
    5.0013   -2.8875    0.0000 C   0  0  0  0  0  0  0  0  0  0  0  0
    5.0013   -3.7125    0.0000 C   0  0  0  0  0  0  0  0  0  0  0  0
    4.2868   -4.1250    0.0000 C   0  0  0  0  0  0  0  0  0  0  0  0
    4.2868   -4.9500    0.0000 O   0  0  0  0  0  0  0  0  0  0  0  0
    5.0013   -5.3625    0.0000 C   0  0  0  0  0  0  0  0  0  0  0  0
    5.7158   -4.9500    0.0000 C   0  0  0  0  0  0  0  0  0  0  0  0
    6.4302   -5.3625    0.0000 C   0  0  0  0  0  0  0  0  0  0  0  0
    6.4302   -6.1875    0.0000 C   0  0  0  0  0  0  0  0  0  0  0  0
    5.7158   -6.6000    0.0000 C   0  0  0  0  0  0  0  0  0  0  0  0
    5.0013   -6.1875    0.0000 C   0  0  0  0  0  0  0  0  0  0  0  0
    5.7158   -4.1250    0.0000 S   0  0  0  0  0  0  0  0  0  0  0  0
    6.4302   -4.5375    0.0000 O   0  0  0  0  0  0  0  0  0  0  0  0
    5.3033   -4.8395    0.0000 O   0  0  0  0  0  0  0  0  0  0  0  0
    6.1283   -3.4105    0.0000 N   0  0  0  0  0  0  0  0  0  0  0  0
    4.2868   -1.6500    0.0000 C   0  0  0  0  0  0  0  0  0  0  0  0
    5.0013   -1.2375    0.0000 O   0  0  0  0  0  0  0  0  0  0  0  0
    3.5724   -1.2375    0.0000 O   0  0  0  0  0  0  0  0  0  0  0  0
  1  2  1  0  0  0  0
  2  3  1  0  0  0  0
  3  4  1  0  0  0  0
  4  5  1  0  0  0  0
  5  6  1  0  0  0  0
  6  7  4  0  0  0  0
  7  8  4  0  0  0  0
  8  9  4  0  0  0  0
  9 10  4  0  0  0  0
 10 11  4  0  0  0  0
  6 11  4  0  0  0  0
 11 12  1  0  0  0  0
 12 13  1  0  0  0  0
 13 14  4  0  0  0  0
 14 15  4  0  0  0  0
 15 16  4  0  0  0  0
 16 17  4  0  0  0  0
 17 18  4  0  0  0  0
 13 18  4  0  0  0  0
 10 19  1  0  0  0  0
 19 20  2  0  0  0  0
 19 21  2  0  0  0  0
 19 22  1  0  0  0  0
  8 23  1  0  0  0  0
 23 24  2  0  0  0  0
 23 25  1  0  0  0  0
M  END

> <ChembankId>
404

> <SMILES>
CCCCNc1cc(cc(c1Oc2ccccc2)S(=O)(=O)N)C(=O)O

> <InChI>
1/C17H20N2O5S/c1-2-3-9-19-14-10-12(17(20)21)11-15(25(18,22)23)16(14)24-13-7-5-4-6-8-13/h4-8,10-11,19H,2-3,9H2,1H3,(H,20,21)(H2,18,22,23)

$$$$
1000056
  Marvin  11101114192D          

 33 34  0  0  0  0            999 V2000
   -2.0688   -3.3909    0.0000 C   0  0  0  0  0  0  0  0  0  0  0  0
   -1.3252   -3.0336    0.0000 O   0  0  0  0  0  0  0  0  0  0  0  0
   -0.6440   -3.4989    0.0000 C   0  0  0  0  0  0  0  0  0  0  0  0
    0.0996   -3.1416    0.0000 C   0  0  0  0  0  0  0  0  0  0  0  0
    0.7809   -3.6069    0.0000 C   0  0  0  0  0  0  0  0  0  0  0  0
    0.7186   -4.4295    0.0000 C   0  0  0  0  0  0  0  0  0  0  0  0
    1.3998   -4.8948    0.0000 C   0  0  0  0  0  0  0  0  0  0  0  0
    2.1434   -4.5375    0.0000 C   0  0  0  0  0  0  0  0  0  0  0  0
    2.8247   -5.0028    0.0000 N   0  0  0  0  0  0  0  0  0  0  0  0
    2.7623   -5.8254    0.0000 C   0  0  0  0  0  0  0  0  0  0  0  0
    3.5683   -4.6455    0.0000 C   0  0  0  0  0  0  0  0  0  0  0  0
    4.2495   -5.1108    0.0000 C   0  0  0  0  0  0  0  0  0  0  0  0
    4.9931   -4.7535    0.0000 C   0  0  0  0  0  0  0  0  0  0  0  0
    5.6744   -5.2188    0.0000 C   0  0  0  0  0  0  0  0  0  0  0  0
    5.2091   -5.9000    0.0000 C   0  0  0  0  0  0  0  0  0  0  0  0
    4.7438   -6.5813    0.0000 N   0  0  0  0  0  0  0  0  0  0  0  0
    6.1397   -4.5375    0.0000 C   0  0  0  0  0  0  0  0  0  0  0  0
    5.7824   -3.7939    0.0000 C   0  0  0  0  0  0  0  0  0  0  0  0
    6.9623   -4.5998    0.0000 C   0  0  0  0  0  0  0  0  0  0  0  0
    6.3556   -5.6841    0.0000 C   0  0  0  0  0  0  0  0  0  0  0  0
    7.0992   -5.3267    0.0000 C   0  0  0  0  0  0  0  0  0  0  0  0
    7.7805   -5.7920    0.0000 C   0  0  0  0  0  0  0  0  0  0  0  0
    7.7182   -6.6147    0.0000 C   0  0  0  0  0  0  0  0  0  0  0  0
    8.3994   -7.0800    0.0000 O   0  0  0  0  0  0  0  0  0  0  0  0
    9.1430   -6.7227    0.0000 C   0  0  0  0  0  0  0  0  0  0  0  0
    6.9746   -6.9720    0.0000 C   0  0  0  0  0  0  0  0  0  0  0  0
    6.9122   -7.7947    0.0000 O   0  0  0  0  0  0  0  0  0  0  0  0
    6.1686   -8.1520    0.0000 C   0  0  0  0  0  0  0  0  0  0  0  0
    6.2933   -6.5067    0.0000 C   0  0  0  0  0  0  0  0  0  0  0  0
   -0.0250   -4.7869    0.0000 C   0  0  0  0  0  0  0  0  0  0  0  0
   -0.7063   -4.3215    0.0000 C   0  0  0  0  0  0  0  0  0  0  0  0
   -1.4499   -4.6789    0.0000 O   0  0  0  0  0  0  0  0  0  0  0  0
   -2.1312   -4.2136    0.0000 C   0  0  0  0  0  0  0  0  0  0  0  0
  1  2  1  0  0  0  0
  2  3  1  0  0  0  0
  3  4  4  0  0  0  0
  4  5  4  0  0  0  0
  5  6  4  0  0  0  0
  6  7  1  0  0  0  0
  7  8  1  0  0  0  0
  8  9  1  0  0  0  0
  9 10  1  0  0  0  0
  9 11  1  0  0  0  0
 11 12  1  0  0  0  0
 12 13  1  0  0  0  0
 13 14  1  0  0  0  0
 14 15  1  0  0  0  0
 15 16  3  0  0  0  0
 14 17  1  0  0  0  0
 17 18  1  0  0  0  0
 17 19  1  0  0  0  0
 14 20  1  0  0  0  0
 20 21  4  0  0  0  0
 21 22  4  0  0  0  0
 22 23  4  0  0  0  0
 23 24  1  0  0  0  0
 24 25  1  0  0  0  0
 23 26  4  0  0  0  0
 26 27  1  0  0  0  0
 27 28  1  0  0  0  0
 26 29  4  0  0  0  0
 20 29  4  0  0  0  0
  6 30  4  0  0  0  0
 30 31  4  0  0  0  0
  3 31  4  0  0  0  0
 31 32  1  0  0  0  0
 32 33  1  0  0  0  0
M  END

> <ChembankId>
1000056

> <SMILES>
COc1ccc(CCN(C)CCCC(C#N)(C(C)C)c2ccc(OC)c(OC)c2)cc1OC

> <InChI>
1/C27H38N2O4/c1-20(2)27(19-28,22-10-12-24(31-5)26(18-22)33-7)14-8-15-29(3)16-13-21-9-11-23(30-4)25(17-21)32-6/h9-12,17-18,20H,8,13-16H2,1-7H3

$$$$
414
  Marvin  11101114192D          

 20 22  0  0  0  0            999 V2000
    2.8579   -3.3000    0.0000 C   0  0  0  0  0  0  0  0  0  0  0  0
    2.1434   -3.7125    0.0000 C   0  0  0  0  0  0  0  0  0  0  0  0
    2.1434   -4.5375    0.0000 C   0  0  0  0  0  0  0  0  0  0  0  0
    1.4289   -4.9500    0.0000 N   0  0  0  0  0  0  0  0  0  0  0  0
    0.7145   -4.5375    0.0000 C   0  0  0  0  0  0  0  0  0  0  0  0
    0.7145   -3.7125    0.0000 C   0  0  0  0  0  0  0  0  0  0  0  0
    1.4289   -3.3000    0.0000 N   0  0  0  0  0  0  0  0  0  0  0  0
    1.4289   -2.4750    0.0000 S   0  0  0  0  0  0  0  0  0  0  0  0
    2.2539   -2.4750    0.0000 O   0  0  0  0  0  0  0  0  0  0  0  0
    0.6039   -2.4750    0.0000 O   0  0  0  0  0  0  0  0  0  0  0  0
    1.4289   -1.6500    0.0000 C   0  0  0  0  0  0  0  0  0  0  0  0
    0.7145   -1.2375    0.0000 C   0  0  0  0  0  0  0  0  0  0  0  0
    0.7145   -0.4125    0.0000 C   0  0  0  0  0  0  0  0  0  0  0  0
    1.4289    0.0000    0.0000 C   0  0  0  0  0  0  0  0  0  0  0  0
    2.1434   -0.4125    0.0000 C   0  0  0  0  0  0  0  0  0  0  0  0
    2.8579    0.0000    0.0000 C   0  0  0  0  0  0  0  0  0  0  0  0
    3.5724   -0.4125    0.0000 N   0  0  0  0  0  0  0  0  0  0  0  0
    3.5724   -1.2375    0.0000 C   0  0  0  0  0  0  0  0  0  0  0  0
    2.8579   -1.6500    0.0000 C   0  0  0  0  0  0  0  0  0  0  0  0
    2.1434   -1.2375    0.0000 C   0  0  0  0  0  0  0  0  0  0  0  0
  1  2  1  0  0  0  0
  2  3  1  0  0  0  0
  3  4  1  0  0  0  0
  4  5  1  0  0  0  0
  5  6  1  0  0  0  0
  6  7  1  0  0  0  0
  2  7  1  0  0  0  0
  7  8  1  0  0  0  0
  8  9  2  0  0  0  0
  8 10  2  0  0  0  0
  8 11  1  0  0  0  0
 11 12  4  0  0  0  0
 12 13  4  0  0  0  0
 13 14  4  0  0  0  0
 14 15  4  0  0  0  0
 15 16  4  0  0  0  0
 16 17  4  0  0  0  0
 17 18  4  0  0  0  0
 18 19  4  0  0  0  0
 19 20  4  0  0  0  0
 11 20  4  0  0  0  0
 15 20  4  0  0  0  0
M  END

> <ChembankId>
414

> <SMILES>
CC1CNCCN1S(=O)(=O)c2cccc3cnccc23

> <InChI>
1/C14H17N3O2S/c1-11-9-16-7-8-17(11)20(18,19)14-4-2-3-12-10-15-6-5-13(12)14/h2-6,10-11,16H,7-9H2,1H3

$$$$
416
  Marvin  11101114192D          

 30 34  0  0  1  0            999 V2000
    1.9233   -6.0604    0.0000 C   0  0  0  0  0  0  0  0  0  0  0  0
    1.9233   -5.2354    0.0000 O   0  0  0  0  0  0  0  0  0  0  0  0
    2.6378   -4.8229    0.0000 C   0  0  0  0  0  0  0  0  0  0  0  0
    2.6378   -3.9979    0.0000 C   0  0  0  0  0  0  0  0  0  0  0  0
    3.3523   -3.5854    0.0000 C   0  0  0  0  0  0  0  0  0  0  0  0
    4.0668   -3.9979    0.0000 C   0  0  0  0  0  0  0  0  0  0  0  0
    4.0668   -4.8229    0.0000 C   0  0  0  0  0  0  0  0  0  0  0  0
    4.7812   -5.2354    0.0000 O   0  0  0  0  0  0  0  0  0  0  0  0
    4.7812   -6.0604    0.0000 C   0  0  0  0  0  0  0  0  0  0  0  0
    3.3523   -5.2354    0.0000 C   0  0  0  0  0  0  0  0  0  0  0  0
    3.3523   -6.0604    0.0000 O   0  0  0  0  0  0  0  0  0  0  0  0
    4.0668   -6.4729    0.0000 C   0  0  0  0  0  0  0  0  0  0  0  0
    3.3523   -2.7604    0.0000 C   0  0  1  0  0  0  0  0  0  0  0  0
    2.6378   -2.3479    0.0000 C   0  0  2  0  0  0  0  0  0  0  0  0
    2.6378   -1.5229    0.0000 C   0  0  0  0  0  0  0  0  0  0  0  0
    1.8532   -1.2680    0.0000 C   0  0  0  0  0  0  0  0  0  0  0  0
    1.3683   -1.9354    0.0000 O   0  0  0  0  0  0  0  0  0  0  0  0
    1.8532   -2.6029    0.0000 C   0  0  0  0  0  0  0  0  0  0  0  0
    1.5983   -3.3875    0.0000 O   0  0  0  0  0  0  0  0  0  0  0  0
    3.3523   -1.1104    0.0000 C   0  0  1  0  0  0  0  0  0  0  0  0
    3.3523   -0.2854    0.0000 O   0  0  0  0  0  0  0  0  0  0  0  0
    4.0668   -1.5229    0.0000 C   0  0  0  0  0  0  0  0  0  0  0  0
    4.7812   -1.1104    0.0000 C   0  0  0  0  0  0  0  0  0  0  0  0
    5.4957   -1.5229    0.0000 C   0  0  0  0  0  0  0  0  0  0  0  0
    6.2803   -1.2680    0.0000 O   0  0  0  0  0  0  0  0  0  0  0  0
    6.7652   -1.9354    0.0000 C   0  0  0  0  0  0  0  0  0  0  0  0
    6.2803   -2.6029    0.0000 O   0  0  0  0  0  0  0  0  0  0  0  0
    5.4957   -2.3479    0.0000 C   0  0  0  0  0  0  0  0  0  0  0  0
    4.7812   -2.7604    0.0000 C   0  0  0  0  0  0  0  0  0  0  0  0
    4.0668   -2.3479    0.0000 C   0  0  0  0  0  0  0  0  0  0  0  0
  1  2  1  0  0  0  0
  2  3  1  0  0  0  0
  3  4  4  0  0  0  0
  4  5  4  0  0  0  0
  5  6  4  0  0  0  0
  6  7  4  0  0  0  0
  7  8  1  0  0  0  0
  8  9  1  0  0  0  0
  7 10  4  0  0  0  0
  3 10  4  0  0  0  0
 10 11  1  0  0  0  0
 11 12  1  0  0  0  0
 13  5  1  1  0  0  0
 13 14  1  0  0  0  0
 14 15  1  0  0  0  0
 15 16  1  0  0  0  0
 16 17  1  0  0  0  0
 17 18  1  0  0  0  0
 14 18  1  1  0  0  0
 18 19  2  0  0  0  0
 15 20  1  0  0  0  0
 20 21  1  1  0  0  0
 20 22  1  0  0  0  0
 22 23  4  0  0  0  0
 23 24  4  0  0  0  0
 24 25  1  0  0  0  0
 25 26  1  0  0  0  0
 26 27  1  0  0  0  0
 27 28  1  0  0  0  0
 24 28  4  0  0  0  0
 28 29  4  0  0  0  0
 29 30  4  0  0  0  0
 13 30  1  0  0  0  0
 22 30  4  0  0  0  0
M  END

> <ChembankId>
416

> <SMILES>
COc1cc(cc(OC)c1OC)[C@H]2[C@@H]3C(COC3=O)[C@@H](O)c4cc5OCOc5cc24

> <InChI>
1/C22H22O8/c1-25-16-4-10(5-17(26-2)21(16)27-3)18-11-6-14-15(30-9-29-14)7-12(11)20(23)13-8-28-22(24)19(13)18/h4-7,13,18-20,23H,8-9H2,1-3H3/t13-,18-,19-,20-/m0/s1

$$$$
417
  Marvin  11101114192D          

 23 26  0  0  0  0            999 V2000
    1.9594    3.9102    0.0000 C   0  0  0  0  0  0  0  0  0  0  0  0
    2.3173    3.1669    0.0000 N   0  0  0  0  0  0  0  0  0  0  0  0
    3.1400    3.1053    0.0000 C   0  0  0  0  0  0  0  0  0  0  0  0
    3.4980    2.3620    0.0000 C   0  0  0  0  0  0  0  0  0  0  0  0
    3.0332    1.6803    0.0000 N   0  0  0  0  0  0  0  0  0  0  0  0
    2.2105    1.7420    0.0000 C   0  0  0  0  0  0  0  0  0  0  0  0
    1.8526    2.4853    0.0000 C   0  0  0  0  0  0  0  0  0  0  0  0
    3.3912    0.9370    0.0000 C   0  0  0  0  0  0  0  0  0  0  0  0
    4.2162    0.9370    0.0000 N   0  0  0  0  0  0  0  0  0  0  0  0
    4.7305    0.2920    0.0000 C   0  0  0  0  0  0  0  0  0  0  0  0
    5.5189    0.5352    0.0000 C   0  0  0  0  0  0  0  0  0  0  0  0
    6.1237   -0.0260    0.0000 C   0  0  0  0  0  0  0  0  0  0  0  0
    6.9120    0.2172    0.0000 Cl  0  0  0  0  0  0  0  0  0  0  0  0
    5.9401   -0.8303    0.0000 C   0  0  0  0  0  0  0  0  0  0  0  0
    5.1517   -1.0735    0.0000 C   0  0  0  0  0  0  0  0  0  0  0  0
    4.5470   -0.5123    0.0000 C   0  0  0  0  0  0  0  0  0  0  0  0
    3.8037   -0.8703    0.0000 N   0  0  0  0  0  0  0  0  0  0  0  0
    3.0604   -0.5123    0.0000 C   0  0  0  0  0  0  0  0  0  0  0  0
    2.4556   -1.0735    0.0000 C   0  0  0  0  0  0  0  0  0  0  0  0
    1.6673   -0.8303    0.0000 C   0  0  0  0  0  0  0  0  0  0  0  0
    1.4837   -0.0260    0.0000 C   0  0  0  0  0  0  0  0  0  0  0  0
    2.0884    0.5352    0.0000 C   0  0  0  0  0  0  0  0  0  0  0  0
    2.8768    0.2920    0.0000 C   0  0  0  0  0  0  0  0  0  0  0  0
  1  2  1  0  0  0  0
  2  3  1  0  0  0  0
  3  4  1  0  0  0  0
  4  5  1  0  0  0  0
  5  6  1  0  0  0  0
  6  7  1  0  0  0  0
  2  7  1  0  0  0  0
  5  8  1  0  0  0  0
  8  9  2  0  0  0  0
  9 10  1  0  0  0  0
 10 11  4  0  0  0  0
 11 12  4  0  0  0  0
 12 13  1  0  0  0  0
 12 14  4  0  0  0  0
 14 15  4  0  0  0  0
 15 16  4  0  0  0  0
 10 16  4  0  0  0  0
 16 17  1  0  0  0  0
 17 18  1  0  0  0  0
 18 19  4  0  0  0  0
 19 20  4  0  0  0  0
 20 21  4  0  0  0  0
 21 22  4  0  0  0  0
 22 23  4  0  0  0  0
  8 23  1  0  0  0  0
 18 23  4  0  0  0  0
M  END

> <ChembankId>
417

> <SMILES>
CN1CCN(CC1)C2=Nc3cc(Cl)ccc3Nc4ccccc24

> <InChI>
1/C18H19ClN4/c1-22-8-10-23(11-9-22)18-14-4-2-3-5-15(14)20-16-7-6-13(19)12-17(16)21-18/h2-7,12,20H,8-11H2,1H3

$$$$
421
  Marvin  11101114192D          

 20 21  0  0  1  0            999 V2000
    1.4289   -1.6500    0.0000 C   0  0  0  0  0  0  0  0  0  0  0  0
    1.4289   -2.4750    0.0000 C   0  0  1  0  0  0  0  0  0  0  0  0
    2.1434   -2.8875    0.0000 C   0  0  0  0  0  0  0  0  0  0  0  0
    2.1434   -3.7125    0.0000 C   0  0  2  0  0  0  0  0  0  0  0  0
    2.8579   -4.1250    0.0000 C   0  0  0  0  0  0  0  0  0  0  0  0
    1.4289   -4.1250    0.0000 C   0  0  0  0  0  0  0  0  0  0  0  0
    1.4289   -4.9500    0.0000 O   0  0  0  0  0  0  0  0  0  0  0  0
    0.7145   -3.7125    0.0000 C   0  0  0  0  0  0  0  0  0  0  0  0
    0.7145   -2.8875    0.0000 C   0  0  0  0  0  0  0  0  0  0  0  0
    0.0000   -4.1250    0.0000 C   0  0  1  0  0  0  0  0  0  0  0  0
   -0.7145   -3.7125    0.0000 O   0  0  0  0  0  0  0  0  0  0  0  0
    0.0000   -4.9500    0.0000 C   0  0  0  0  0  0  0  0  0  0  0  0
   -0.7145   -5.3625    0.0000 C   0  0  0  0  0  0  0  0  0  0  0  0
   -0.7145   -6.1875    0.0000 C   0  0  0  0  0  0  0  0  0  0  0  0
   -1.4289   -6.6000    0.0000 C   0  0  0  0  0  0  0  0  0  0  0  0
   -1.4289   -7.4250    0.0000 O   0  0  0  0  0  0  0  0  0  0  0  0
   -2.1434   -6.1875    0.0000 N   0  0  0  0  0  0  0  0  0  0  0  0
   -2.1434   -5.3625    0.0000 C   0  0  0  0  0  0  0  0  0  0  0  0
   -2.8579   -4.9500    0.0000 O   0  0  0  0  0  0  0  0  0  0  0  0
   -1.4289   -4.9500    0.0000 C   0  0  0  0  0  0  0  0  0  0  0  0
  2  1  1  1  0  0  0
  2  3  1  0  0  0  0
  3  4  1  0  0  0  0
  4  5  1  6  0  0  0
  4  6  1  0  0  0  0
  6  7  2  0  0  0  0
  6  8  1  0  0  0  0
  8  9  1  0  0  0  0
  2  9  1  0  0  0  0
  8 10  1  0  0  0  0
 10 11  1  6  0  0  0
 10 12  1  0  0  0  0
 12 13  1  0  0  0  0
 13 14  1  0  0  0  0
 14 15  1  0  0  0  0
 15 16  2  0  0  0  0
 15 17  1  0  0  0  0
 17 18  1  0  0  0  0
 18 19  2  0  0  0  0
 18 20  1  0  0  0  0
 13 20  1  0  0  0  0
M  END

> <ChembankId>
421

> <SMILES>
C[C@H]1C[C@H](C)C(=O)[C@@H](C1)[C@@H](O)CC2CC(=O)NC(=O)C2

> <InChI>
1/C15H23NO4/c1-8-3-9(2)15(20)11(4-8)12(17)5-10-6-13(18)16-14(19)7-10/h8-12,17H,3-7H2,1-2H3,(H,16,18,19)/t8-,9-,11-,12+/m0/s1

$$$$
425
  Marvin  11101114192D          

 20 22  0  0  0  0            999 V2000
   -2.1434   -2.8875    0.0000 O   0  0  0  0  0  0  0  0  0  0  0  0
   -1.4289   -2.4750    0.0000 C   0  0  0  0  0  0  0  0  0  0  0  0
   -1.4289   -1.6500    0.0000 C   0  0  0  0  0  0  0  0  0  0  0  0
   -0.7145   -1.2375    0.0000 C   0  0  0  0  0  0  0  0  0  0  0  0
    0.0000   -1.6500    0.0000 C   0  0  0  0  0  0  0  0  0  0  0  0
    0.0000   -2.4750    0.0000 C   0  0  0  0  0  0  0  0  0  0  0  0
   -0.7145   -2.8875    0.0000 C   0  0  0  0  0  0  0  0  0  0  0  0
    0.7145   -1.2375    0.0000 C   0  0  0  0  0  0  0  0  0  0  0  0
    0.7145   -0.4125    0.0000 C   0  0  0  0  0  0  0  0  0  0  0  0
    1.4289    0.0000    0.0000 O   0  0  0  0  0  0  0  0  0  0  0  0
    2.1434   -0.4125    0.0000 C   0  0  0  0  0  0  0  0  0  0  0  0
    2.8579    0.0000    0.0000 C   0  0  0  0  0  0  0  0  0  0  0  0
    3.5724   -0.4125    0.0000 C   0  0  0  0  0  0  0  0  0  0  0  0
    4.2868   -0.0000    0.0000 O   0  0  0  0  0  0  0  0  0  0  0  0
    3.5724   -1.2375    0.0000 C   0  0  0  0  0  0  0  0  0  0  0  0
    2.8579   -1.6500    0.0000 C   0  0  0  0  0  0  0  0  0  0  0  0
    2.8579   -2.4750    0.0000 O   0  0  0  0  0  0  0  0  0  0  0  0
    2.1434   -1.2375    0.0000 C   0  0  0  0  0  0  0  0  0  0  0  0
    1.4289   -1.6500    0.0000 C   0  0  0  0  0  0  0  0  0  0  0  0
    1.4289   -2.4750    0.0000 O   0  0  0  0  0  0  0  0  0  0  0  0
  1  2  1  0  0  0  0
  2  3  4  0  0  0  0
  3  4  4  0  0  0  0
  4  5  4  0  0  0  0
  5  6  4  0  0  0  0
  6  7  4  0  0  0  0
  2  7  4  0  0  0  0
  5  8  1  0  0  0  0
  8  9  4  0  0  0  0
  9 10  4  0  0  0  0
 10 11  4  0  0  0  0
 11 12  4  0  0  0  0
 12 13  4  0  0  0  0
 13 14  1  0  0  0  0
 13 15  4  0  0  0  0
 15 16  4  0  0  0  0
 16 17  1  0  0  0  0
 16 18  4  0  0  0  0
 11 18  4  0  0  0  0
 18 19  4  0  0  0  0
  8 19  4  0  0  0  0
 19 20  2  0  0  0  0
M  END

> <ChembankId>
425

> <SMILES>
Oc1ccc(cc1)c2coc3cc(O)cc(O)c3c2=O

> <InChI>
1/C15H10O5/c16-9-3-1-8(2-4-9)11-7-20-13-6-10(17)5-12(18)14(13)15(11)19/h1-7,16-18H

$$$$
436
  Marvin  11101114192D          

 21 23  0  0  0  0            999 V2000
    2.1434    1.2375    0.0000 C   0  0  0  0  0  0  0  0  0  0  0  0
    2.8579    0.8250    0.0000 N   0  0  0  0  0  0  0  0  0  0  0  0
    2.8579    0.0000    0.0000 C   0  0  0  0  0  0  0  0  0  0  0  0
    3.5724    1.2375    0.0000 C   0  0  0  0  0  0  0  0  0  0  0  0
    4.2868    0.8250    0.0000 C   0  0  0  0  0  0  0  0  0  0  0  0
    5.0013    1.2375    0.0000 C   0  0  0  0  0  0  0  0  0  0  0  0
    5.7158    0.8250    0.0000 N   0  0  0  0  0  0  0  0  0  0  0  0
    6.4302    1.2375    0.0000 C   0  0  0  0  0  0  0  0  0  0  0  0
    6.4302    2.0625    0.0000 C   0  0  0  0  0  0  0  0  0  0  0  0
    7.1447    2.4750    0.0000 C   0  0  0  0  0  0  0  0  0  0  0  0
    7.8592    2.0625    0.0000 C   0  0  0  0  0  0  0  0  0  0  0  0
    7.8592    1.2375    0.0000 C   0  0  0  0  0  0  0  0  0  0  0  0
    7.1447    0.8250    0.0000 C   0  0  0  0  0  0  0  0  0  0  0  0
    7.1447    0.0000    0.0000 S   0  0  0  0  0  0  0  0  0  0  0  0
    6.4302   -0.4125    0.0000 C   0  0  0  0  0  0  0  0  0  0  0  0
    6.4302   -1.2375    0.0000 C   0  0  0  0  0  0  0  0  0  0  0  0
    5.7158   -1.6500    0.0000 C   0  0  0  0  0  0  0  0  0  0  0  0
    5.0013   -1.2375    0.0000 C   0  0  0  0  0  0  0  0  0  0  0  0
    4.2868   -1.6500    0.0000 Cl  0  0  0  0  0  0  0  0  0  0  0  0
    5.0013   -0.4125    0.0000 C   0  0  0  0  0  0  0  0  0  0  0  0
    5.7158    0.0000    0.0000 C   0  0  0  0  0  0  0  0  0  0  0  0
  1  2  1  0  0  0  0
  2  3  1  0  0  0  0
  2  4  1  0  0  0  0
  4  5  1  0  0  0  0
  5  6  1  0  0  0  0
  6  7  1  0  0  0  0
  7  8  1  0  0  0  0
  8  9  4  0  0  0  0
  9 10  4  0  0  0  0
 10 11  4  0  0  0  0
 11 12  4  0  0  0  0
 12 13  4  0  0  0  0
  8 13  4  0  0  0  0
 13 14  1  0  0  0  0
 14 15  1  0  0  0  0
 15 16  4  0  0  0  0
 16 17  4  0  0  0  0
 17 18  4  0  0  0  0
 18 19  1  0  0  0  0
 18 20  4  0  0  0  0
 20 21  4  0  0  0  0
  7 21  1  0  0  0  0
 15 21  4  0  0  0  0
M  END

> <ChembankId>
436

> <SMILES>
CN(C)CCCN1c2ccccc2Sc3ccc(Cl)cc13

> <InChI>
1/C17H19ClN2S/c1-19(2)10-5-11-20-14-6-3-4-7-16(14)21-17-9-8-13(18)12-15(17)20/h3-4,6-9,12H,5,10-11H2,1-2H3

$$$$
437
  Marvin  11101114192D          

 28 31  0  0  0  0            999 V2000
    5.7158    4.9500    0.0000 C   0  0  0  0  0  0  0  0  0  0  0  0
    5.0013    4.5375    0.0000 N   0  0  0  0  0  0  0  0  0  0  0  0
    5.0013    3.7125    0.0000 C   0  0  0  0  0  0  0  0  0  0  0  0
    4.2868    3.3000    0.0000 C   0  0  0  0  0  0  0  0  0  0  0  0
    3.5724    3.7125    0.0000 N   0  0  0  0  0  0  0  0  0  0  0  0
    2.8579    3.3000    0.0000 C   0  0  0  0  0  0  0  0  0  0  0  0
    2.8579    2.4750    0.0000 C   0  0  0  0  0  0  0  0  0  0  0  0
    2.1434    2.0625    0.0000 C   0  0  0  0  0  0  0  0  0  0  0  0
    2.1434    1.2375    0.0000 N   0  0  0  0  0  0  0  0  0  0  0  0
    2.8579    0.8250    0.0000 C   0  0  0  0  0  0  0  0  0  0  0  0
    3.5724    1.2375    0.0000 C   0  0  0  0  0  0  0  0  0  0  0  0
    4.2868    0.8250    0.0000 C   0  0  0  0  0  0  0  0  0  0  0  0
    4.2868   -0.0000    0.0000 C   0  0  0  0  0  0  0  0  0  0  0  0
    3.5724   -0.4125    0.0000 C   0  0  0  0  0  0  0  0  0  0  0  0
    2.8579    0.0000    0.0000 C   0  0  0  0  0  0  0  0  0  0  0  0
    2.1434   -0.4125    0.0000 S   0  0  0  0  0  0  0  0  0  0  0  0
    1.4289    0.0000    0.0000 C   0  0  0  0  0  0  0  0  0  0  0  0
    0.7145   -0.4125    0.0000 C   0  0  0  0  0  0  0  0  0  0  0  0
    0.0000    0.0000    0.0000 C   0  0  0  0  0  0  0  0  0  0  0  0
    0.0000    0.8250    0.0000 C   0  0  0  0  0  0  0  0  0  0  0  0
    0.7145    1.2375    0.0000 C   0  0  0  0  0  0  0  0  0  0  0  0
    1.4289    0.8250    0.0000 C   0  0  0  0  0  0  0  0  0  0  0  0
   -0.7145    1.2375    0.0000 C   0  0  0  0  0  0  0  0  0  0  0  0
   -1.4289    1.6500    0.0000 F   0  0  0  0  0  0  0  0  0  0  0  0
   -0.3020    1.9520    0.0000 F   0  0  0  0  0  0  0  0  0  0  0  0
   -1.1270    0.5230    0.0000 F   0  0  0  0  0  0  0  0  0  0  0  0
    3.5724    4.5375    0.0000 C   0  0  0  0  0  0  0  0  0  0  0  0
    4.2868    4.9500    0.0000 C   0  0  0  0  0  0  0  0  0  0  0  0
  1  2  1  0  0  0  0
  2  3  1  0  0  0  0
  3  4  1  0  0  0  0
  4  5  1  0  0  0  0
  5  6  1  0  0  0  0
  6  7  1  0  0  0  0
  7  8  1  0  0  0  0
  8  9  1  0  0  0  0
  9 10  1  0  0  0  0
 10 11  4  0  0  0  0
 11 12  4  0  0  0  0
 12 13  4  0  0  0  0
 13 14  4  0  0  0  0
 14 15  4  0  0  0  0
 10 15  4  0  0  0  0
 15 16  1  0  0  0  0
 16 17  1  0  0  0  0
 17 18  4  0  0  0  0
 18 19  4  0  0  0  0
 19 20  4  0  0  0  0
 20 21  4  0  0  0  0
 21 22  4  0  0  0  0
  9 22  1  0  0  0  0
 17 22  4  0  0  0  0
 20 23  1  0  0  0  0
 23 24  1  0  0  0  0
 23 25  1  0  0  0  0
 23 26  1  0  0  0  0
  5 27  1  0  0  0  0
 27 28  1  0  0  0  0
  2 28  1  0  0  0  0
M  END

> <ChembankId>
437

> <SMILES>
CN1CCN(CCCN2c3ccccc3Sc4ccc(cc24)C(F)(F)F)CC1

> <InChI>
1/C21H24F3N3S/c1-25-11-13-26(14-12-25)9-4-10-27-17-5-2-3-6-19(17)28-20-8-7-16(15-18(20)27)21(22,23)24/h2-3,5-8,15H,4,9-14H2,1H3

$$$$
446
  Marvin  11101114192D          

 22 22  0  0  0  0            999 V2000
   -1.4289    4.9500    0.0000 C   0  0  0  0  0  0  0  0  0  0  0  0
   -0.7145    4.5375    0.0000 O   0  0  0  0  0  0  0  0  0  0  0  0
   -0.7145    3.7125    0.0000 C   0  0  0  0  0  0  0  0  0  0  0  0
    0.0000    3.3000    0.0000 C   0  0  0  0  0  0  0  0  0  0  0  0
    0.0000    2.4750    0.0000 C   0  0  0  0  0  0  0  0  0  0  0  0
    0.7145    2.0625    0.0000 C   0  0  0  0  0  0  0  0  0  0  0  0
    1.4289    2.4750    0.0000 N   0  0  0  0  0  0  0  0  0  0  0  0
    2.1434    2.0625    0.0000 C   0  0  0  0  0  0  0  0  0  0  0  0
    2.1434    1.2375    0.0000 O   0  0  0  0  0  0  0  0  0  0  0  0
    2.8579    2.4750    0.0000 C   0  0  0  0  0  0  0  0  0  0  0  0
    3.5724    2.0625    0.0000 C   0  0  0  0  0  0  0  0  0  0  0  0
    4.2868    2.4750    0.0000 C   0  0  0  0  0  0  0  0  0  0  0  0
    5.0013    2.0625    0.0000 C   0  0  0  0  0  0  0  0  0  0  0  0
    5.7158    2.4750    0.0000 C   0  0  0  0  0  0  0  0  0  0  0  0
    6.4302    2.0625    0.0000 C   0  0  0  0  0  0  0  0  0  0  0  0
    7.1447    2.4750    0.0000 C   0  0  0  0  0  0  0  0  0  0  0  0
    7.8592    2.0625    0.0000 C   0  0  0  0  0  0  0  0  0  0  0  0
    7.1447    3.3000    0.0000 C   0  0  0  0  0  0  0  0  0  0  0  0
   -0.7145    2.0625    0.0000 C   0  0  0  0  0  0  0  0  0  0  0  0
   -1.4289    2.4750    0.0000 C   0  0  0  0  0  0  0  0  0  0  0  0
   -1.4289    3.3000    0.0000 C   0  0  0  0  0  0  0  0  0  0  0  0
   -2.1434    3.7125    0.0000 O   0  0  0  0  0  0  0  0  0  0  0  0
  1  2  1  0  0  0  0
  2  3  1  0  0  0  0
  3  4  4  0  0  0  0
  4  5  4  0  0  0  0
  5  6  1  0  0  0  0
  6  7  1  0  0  0  0
  7  8  1  0  0  0  0
  8  9  2  0  0  0  0
  8 10  1  0  0  0  0
 10 11  1  0  0  0  0
 11 12  1  0  0  0  0
 12 13  1  0  0  0  0
 13 14  1  0  0  0  0
 14 15  2  0  0  0  0
 15 16  1  0  0  0  0
 16 17  1  0  0  0  0
 16 18  1  0  0  0  0
  5 19  4  0  0  0  0
 19 20  4  0  0  0  0
 20 21  4  0  0  0  0
  3 21  4  0  0  0  0
 21 22  1  0  0  0  0
M  END

> <ChembankId>
446

> <SMILES>
COc1cc(CNC(=O)CCCC/C=C/C(C)C)ccc1O

> <InChI>
1/C18H27NO3/c1-14(2)8-6-4-5-7-9-18(21)19-13-15-10-11-16(20)17(12-15)22-3/h6,8,10-12,14,20H,4-5,7,9,13H2,1-3H3,(H,19,21)

$$$$
448
  Marvin  11101114192D          

 14 15  0  0  0  0            999 V2000
    3.4656    3.5277    0.0000 Cl  0  0  0  0  0  0  0  0  0  0  0  0
    4.1801    3.1152    0.0000 C   0  0  0  0  0  0  0  0  0  0  0  0
    4.8946    3.5277    0.0000 C   0  0  0  0  0  0  0  0  0  0  0  0
    5.6091    3.1152    0.0000 C   0  0  0  0  0  0  0  0  0  0  0  0
    5.6091    2.2902    0.0000 C   0  0  0  0  0  0  0  0  0  0  0  0
    4.8946    1.8777    0.0000 C   0  0  0  0  0  0  0  0  0  0  0  0
    4.8946    1.0527    0.0000 Cl  0  0  0  0  0  0  0  0  0  0  0  0
    4.1801    2.2902    0.0000 C   0  0  0  0  0  0  0  0  0  0  0  0
    3.4656    1.8777    0.0000 N   0  0  0  0  0  0  0  0  0  0  0  0
    3.4656    1.0527    0.0000 C   0  0  0  0  0  0  0  0  0  0  0  0
    4.1331    0.5678    0.0000 N   0  0  0  0  0  0  0  0  0  0  0  0
    3.8781   -0.2169    0.0000 C   0  0  0  0  0  0  0  0  0  0  0  0
    3.0531   -0.2169    0.0000 C   0  0  0  0  0  0  0  0  0  0  0  0
    2.7982    0.5678    0.0000 N   0  0  0  0  0  0  0  0  0  0  0  0
  1  2  1  0  0  0  0
  2  3  4  0  0  0  0
  3  4  4  0  0  0  0
  4  5  4  0  0  0  0
  5  6  4  0  0  0  0
  6  7  1  0  0  0  0
  6  8  4  0  0  0  0
  2  8  4  0  0  0  0
  8  9  1  0  0  0  0
  9 10  2  0  0  0  0
 10 11  1  0  0  0  0
 11 12  1  0  0  0  0
 12 13  1  0  0  0  0
 13 14  1  0  0  0  0
 10 14  1  0  0  0  0
M  END

> <ChembankId>
448

> <SMILES>
Clc1cccc(Cl)c1N=C2NCCN2

> <InChI>
1/C9H9Cl2N3/c10-6-2-1-3-7(11)8(6)14-9-12-4-5-13-9/h1-3H,4-5H2,(H2,12,13,14)

$$$$
449
  Marvin  11101114192D          

 13 14  0  0  0  0            999 V2000
    0.0000   -1.6500    0.0000 C   0  0  0  0  0  0  0  0  0  0  0  0
    0.7145   -1.2375    0.0000 C   0  0  0  0  0  0  0  0  0  0  0  0
    0.7145   -0.4125    0.0000 C   0  0  0  0  0  0  0  0  0  0  0  0
    1.4289    0.0000    0.0000 C   0  0  0  0  0  0  0  0  0  0  0  0
    1.4289    0.8250    0.0000 O   0  0  0  0  0  0  0  0  0  0  0  0
    2.1434   -0.4125    0.0000 C   0  0  0  0  0  0  0  0  0  0  0  0
    2.8579    0.0000    0.0000 C   0  0  0  0  0  0  0  0  0  0  0  0
    3.5724   -0.4125    0.0000 C   0  0  0  0  0  0  0  0  0  0  0  0
    3.5724   -1.2375    0.0000 C   0  0  0  0  0  0  0  0  0  0  0  0
    2.8579   -1.6500    0.0000 C   0  0  0  0  0  0  0  0  0  0  0  0
    2.1434   -1.2375    0.0000 C   0  0  0  0  0  0  0  0  0  0  0  0
    1.4289   -1.6500    0.0000 C   0  0  0  0  0  0  0  0  0  0  0  0
    1.4289   -2.4750    0.0000 O   0  0  0  0  0  0  0  0  0  0  0  0
  1  2  1  0  0  0  0
  2  3  2  0  0  0  0
  3  4  1  0  0  0  0
  4  5  2  0  0  0  0
  4  6  1  0  0  0  0
  6  7  4  0  0  0  0
  7  8  4  0  0  0  0
  8  9  4  0  0  0  0
  9 10  4  0  0  0  0
 10 11  4  0  0  0  0
  6 11  4  0  0  0  0
 11 12  1  0  0  0  0
  2 12  1  0  0  0  0
 12 13  2  0  0  0  0
M  END

> <ChembankId>
449

> <SMILES>
CC1=CC(=O)c2ccccc2C1=O

> <InChI>
1/C11H8O2/c1-7-6-10(12)8-4-2-3-5-9(8)11(7)13/h2-6H,1H3

$$$$
450
  Marvin  11101114192D          

 26 30  0  0  1  0            999 V2000
    3.1037   -1.1001    0.0000 C   0  0  0  0  0  0  0  0  0  0  0  0
    2.8316   -1.8790    0.0000 O   0  0  0  0  0  0  0  0  0  0  0  0
    3.3700   -2.5041    0.0000 C   0  0  0  0  0  0  0  0  0  0  0  0
    4.1805   -2.3503    0.0000 O   0  0  0  0  0  0  0  0  0  0  0  0
    3.0978   -3.2829    0.0000 C   0  0  2  0  0  0  0  0  0  0  0  0
    2.2873   -3.4366    0.0000 C   0  0  1  0  0  0  0  0  0  0  0  0
    1.7489   -2.8115    0.0000 O   0  0  0  0  0  0  0  0  0  0  0  0
    2.0151   -4.2154    0.0000 C   0  0  0  0  0  0  0  0  0  0  0  0
    2.5535   -4.8405    0.0000 C   0  0  0  0  0  0  0  0  0  0  0  0
    3.3641   -4.6868    0.0000 C   0  0  1  0  0  0  0  0  0  0  0  0
    3.9025   -5.3119    0.0000 C   0  0  0  0  0  0  0  0  0  0  0  0
    4.7131   -5.1582    0.0000 N   0  0  0  0  0  0  0  0  0  0  0  0
    5.2515   -5.7833    0.0000 C   0  0  0  0  0  0  0  0  0  0  0  0
    6.0620   -5.6295    0.0000 C   0  0  0  0  0  0  0  0  0  0  0  0
    6.3342   -4.8507    0.0000 C   0  0  0  0  0  0  0  0  0  0  0  0
    5.7957   -4.2256    0.0000 C   0  0  0  0  0  0  0  0  0  0  0  0
    6.2239   -3.5204    0.0000 N   0  0  0  0  0  0  0  0  0  0  0  0
    7.0269   -3.7096    0.0000 C   0  0  0  0  0  0  0  0  0  0  0  0
    7.7048   -3.2395    0.0000 C   0  0  0  0  0  0  0  0  0  0  0  0
    8.4509   -3.5916    0.0000 C   0  0  0  0  0  0  0  0  0  0  0  0
    8.5191   -4.4138    0.0000 C   0  0  0  0  0  0  0  0  0  0  0  0
    7.8411   -4.8839    0.0000 C   0  0  0  0  0  0  0  0  0  0  0  0
    7.0950   -4.5318    0.0000 C   0  0  0  0  0  0  0  0  0  0  0  0
    4.9852   -4.3793    0.0000 C   0  0  2  0  0  0  0  0  0  0  0  0
    4.4468   -3.7542    0.0000 C   0  0  0  0  0  0  0  0  0  0  0  0
    3.6362   -3.9080    0.0000 C   0  0  2  0  0  0  0  0  0  0  0  0
  1  2  1  0  0  0  0
  2  3  1  0  0  0  0
  3  4  2  0  0  0  0
  5  3  1  1  0  0  0
  5  6  1  0  0  0  0
  6  7  1  6  0  0  0
  6  8  1  0  0  0  0
  8  9  1  0  0  0  0
  9 10  1  0  0  0  0
 10 11  1  6  0  0  0
 11 12  1  0  0  0  0
 12 13  1  0  0  0  0
 13 14  1  0  0  0  0
 14 15  1  0  0  0  0
 15 16  4  0  0  0  0
 16 17  4  0  0  0  0
 17 18  4  0  0  0  0
 18 19  4  0  0  0  0
 19 20  4  0  0  0  0
 20 21  4  0  0  0  0
 21 22  4  0  0  0  0
 22 23  4  0  0  0  0
 15 23  4  0  0  0  0
 18 23  4  0  0  0  0
 16 24  1  0  0  0  0
 12 24  1  0  0  0  0
 24 25  1  1  0  0  0
 26 25  1  1  0  0  0
  5 26  1  0  0  0  0
 10 26  1  0  0  0  0
M  STY  1   1 DAT
M  SAL   1  1  17
M  SDT   1 MRV_IMPLICIT_H                                        
M  SDD   1     0.0000    0.0000    DR    ALL  0       0  
M  SED   1 IMPL_H1
M  END

> <ChembankId>
450

> <SMILES>
COC(=O)[C@@H]1[C@@H](O)CC[C@H]2CN3CCc4c([nH]c5ccccc45)[C@@H]3C[C@H]12

> <InChI>
1/C21H26N2O3/c1-26-21(25)19-15-10-17-20-14(13-4-2-3-5-16(13)22-20)8-9-23(17)11-12(15)6-7-18(19)24/h2-5,12,15,17-19,22,24H,6-11H2,1H3

$$$$
457
  Marvin  11101114192D          

 25 28  0  0  0  0            999 V2000
    0.7145    2.0625    0.0000 O   0  0  0  0  0  0  0  0  0  0  0  0
    0.7145    1.2375    0.0000 C   0  0  0  0  0  0  0  0  0  0  0  0
    1.4289    0.8250    0.0000 C   0  0  0  0  0  0  0  0  0  0  0  0
    1.4289   -0.0000    0.0000 C   0  0  0  0  0  0  0  0  0  0  0  0
    0.7145   -0.4125    0.0000 C   0  0  0  0  0  0  0  0  0  0  0  0
    0.0000   -0.0000    0.0000 C   0  0  0  0  0  0  0  0  0  0  0  0
    0.0000    0.8250    0.0000 C   0  0  0  0  0  0  0  0  0  0  0  0
    0.7145   -1.2375    0.0000 C   0  0  0  0  0  0  0  0  0  0  0  0
    1.3819   -1.7224    0.0000 N   0  0  0  0  0  0  0  0  0  0  0  0
    1.1270   -2.5070    0.0000 C   0  0  0  0  0  0  0  0  0  0  0  0
    0.3020   -2.5070    0.0000 C   0  0  0  0  0  0  0  0  0  0  0  0
    0.0470   -1.7224    0.0000 N   0  0  0  0  0  0  0  0  0  0  0  0
   -0.1830   -3.1745    0.0000 C   0  0  0  0  0  0  0  0  0  0  0  0
    0.1526   -3.9282    0.0000 C   0  0  0  0  0  0  0  0  0  0  0  0
   -0.3323   -4.5956    0.0000 C   0  0  0  0  0  0  0  0  0  0  0  0
   -1.1528   -4.5094    0.0000 N   0  0  0  0  0  0  0  0  0  0  0  0
   -1.4884   -3.7557    0.0000 C   0  0  0  0  0  0  0  0  0  0  0  0
   -1.0034   -3.0882    0.0000 C   0  0  0  0  0  0  0  0  0  0  0  0
    1.6119   -3.1745    0.0000 C   0  0  0  0  0  0  0  0  0  0  0  0
    2.4324   -3.0882    0.0000 C   0  0  0  0  0  0  0  0  0  0  0  0
    2.9173   -3.7557    0.0000 C   0  0  0  0  0  0  0  0  0  0  0  0
    2.5817   -4.5094    0.0000 C   0  0  0  0  0  0  0  0  0  0  0  0
    3.0667   -5.1768    0.0000 F   0  0  0  0  0  0  0  0  0  0  0  0
    1.7613   -4.5956    0.0000 C   0  0  0  0  0  0  0  0  0  0  0  0
    1.2763   -3.9282    0.0000 C   0  0  0  0  0  0  0  0  0  0  0  0
  1  2  1  0  0  0  0
  2  3  4  0  0  0  0
  3  4  4  0  0  0  0
  4  5  4  0  0  0  0
  5  6  4  0  0  0  0
  6  7  4  0  0  0  0
  2  7  4  0  0  0  0
  5  8  1  0  0  0  0
  8  9  4  0  0  0  0
  9 10  4  0  0  0  0
 10 11  4  0  0  0  0
 11 12  4  0  0  0  0
  8 12  4  0  0  0  0
 11 13  1  0  0  0  0
 13 14  4  0  0  0  0
 14 15  4  0  0  0  0
 15 16  4  0  0  0  0
 16 17  4  0  0  0  0
 17 18  4  0  0  0  0
 13 18  4  0  0  0  0
 10 19  1  0  0  0  0
 19 20  4  0  0  0  0
 20 21  4  0  0  0  0
 21 22  4  0  0  0  0
 22 23  1  0  0  0  0
 22 24  4  0  0  0  0
 24 25  4  0  0  0  0
 19 25  4  0  0  0  0
M  STY  1   1 DAT
M  SAL   1  1  12
M  SDT   1 MRV_IMPLICIT_H                                        
M  SDD   1     0.0000    0.0000    DR    ALL  0       0  
M  SED   1 IMPL_H1
M  END

> <ChembankId>
457

> <SMILES>
Oc1ccc(cc1)c2nc(c([nH]2)c3ccncc3)c4ccc(F)cc4

> <InChI>
1/C20H14FN3O/c21-16-5-1-13(2-6-16)18-19(14-9-11-22-12-10-14)24-20(23-18)15-3-7-17(25)8-4-15/h1-12,25H,(H,23,24)

$$$$
460
  Marvin  11101114192D          

 85 85  0  0  1  0            999 V2000
    6.6429    6.7435    0.0000 C   0  0  0  0  0  0  0  0  0  0  0  0
    6.3132    5.9787    0.0000 C   0  0  0  0  0  0  0  0  0  0  0  0
    6.1399    5.1460    0.0000 C   0  0  0  0  0  0  0  0  0  0  0  0
    6.8456    4.7186    0.0000 N   0  0  0  0  0  0  0  0  0  0  0  0
    6.6572    3.9154    0.0000 C   0  0  0  0  0  0  0  0  0  0  0  0
    6.0889    3.3289    0.0000 O   0  0  0  0  0  0  0  0  0  0  0  0
    7.0574    3.1062    0.0000 C   0  0  0  0  0  0  0  0  0  0  0  0
    7.8971    3.4082    0.0000 C   0  0  2  0  0  0  0  0  0  0  0  0
    8.6029    2.9455    0.0000 O   0  0  0  0  0  0  0  0  0  0  0  0
    8.5081    4.0395    0.0000 C   0  0  2  0  0  0  0  0  0  0  0  0
    8.4614    4.8775    0.0000 C   0  0  0  0  0  0  0  0  0  0  0  0
    9.3538    4.1517    0.0000 C   0  0  0  0  0  0  0  0  0  0  0  0
   10.1224    4.4858    0.0000 C   0  0  0  0  0  0  0  0  0  0  0  0
   10.7855    3.9950    0.0000 C   0  0  0  0  0  0  0  0  0  0  0  0
   11.5421    4.3238    0.0000 C   0  0  0  0  0  0  0  0  0  0  0  0
    6.6301    2.4005    0.0000 N   0  0  0  0  0  0  0  0  0  0  0  0
    5.9625    1.9032    0.0000 C   0  0  0  0  0  0  0  0  0  0  0  0
    7.0276    1.6775    0.0000 C   0  0  0  0  0  0  0  0  0  0  0  0
    7.7958    2.0226    0.0000 O   0  0  0  0  0  0  0  0  0  0  0  0
    6.6002    0.9719    0.0000 C   0  0  0  0  0  0  0  0  0  0  0  0
    7.4860    0.9352    0.0000 C   0  0  0  0  0  0  0  0  0  0  0  0
    8.3756    0.9368    0.0000 C   0  0  0  0  0  0  0  0  0  0  0  0
    8.2799    0.5807    0.0000 C   0  0  0  0  0  0  0  0  0  0  0  0
    6.9977    0.2489    0.0000 N   0  0  0  0  0  0  0  0  0  0  0  0
    7.8004   -0.1066    0.0000 C   0  0  0  0  0  0  0  0  0  0  0  0
    6.5703   -0.4568    0.0000 C   0  0  0  0  0  0  0  0  0  0  0  0
    5.8213   -0.0972    0.0000 O   0  0  0  0  0  0  0  0  0  0  0  0
    6.9678   -1.1797    0.0000 C   0  0  0  0  0  0  0  0  0  0  0  0
    7.8245   -1.2997    0.0000 C   0  0  0  0  0  0  0  0  0  0  0  0
    8.6886   -1.4811    0.0000 C   0  0  0  0  0  0  0  0  0  0  0  0
    9.5401   -1.6921    0.0000 C   0  0  0  0  0  0  0  0  0  0  0  0
    9.3842   -2.0112    0.0000 C   0  0  0  0  0  0  0  0  0  0  0  0
    6.5405   -1.8854    0.0000 N   0  0  0  0  0  0  0  0  0  0  0  0
    5.7557   -2.2330    0.0000 C   0  0  0  0  0  0  0  0  0  0  0  0
    6.9379   -2.6083    0.0000 C   0  0  0  0  0  0  0  0  0  0  0  0
    7.7658   -2.5408    0.0000 O   0  0  0  0  0  0  0  0  0  0  0  0
    6.5106   -3.3140    0.0000 C   0  0  0  0  0  0  0  0  0  0  0  0
    7.4135   -3.4450    0.0000 C   0  0  0  0  0  0  0  0  0  0  0  0
    8.2561   -3.7512    0.0000 C   0  0  0  0  0  0  0  0  0  0  0  0
    8.9564   -4.2158    0.0000 C   0  0  0  0  0  0  0  0  0  0  0  0
    8.5945   -4.5494    0.0000 C   0  0  0  0  0  0  0  0  0  0  0  0
    6.9081   -4.0370    0.0000 N   0  0  0  0  0  0  0  0  0  0  0  0
    7.5096   -4.6889    0.0000 C   0  0  0  0  0  0  0  0  0  0  0  0
    6.4807   -4.7427    0.0000 C   0  0  0  0  0  0  0  0  0  0  0  0
    6.6658   -5.5758    0.0000 O   0  0  0  0  0  0  0  0  0  0  0  0
    5.6559   -4.7254    0.0000 C   0  0  1  0  0  0  0  0  0  0  0  0
    5.5002   -3.9167    0.0000 C   0  0  0  0  0  0  0  0  0  0  0  0
    5.2286   -5.4311    0.0000 N   0  0  0  0  0  0  0  0  0  0  0  0
    4.4037   -5.4139    0.0000 C   0  0  0  0  0  0  0  0  0  0  0  0
    4.3116   -6.2732    0.0000 O   0  0  0  0  0  0  0  0  0  0  0  0
    4.0063   -4.6909    0.0000 C   0  0  0  0  0  0  0  0  0  0  0  0
    3.2465   -5.0679    0.0000 C   0  0  0  0  0  0  0  0  0  0  0  0
    4.4336   -3.9852    0.0000 N   0  0  0  0  0  0  0  0  0  0  0  0
    4.0361   -3.2623    0.0000 C   0  0  0  0  0  0  0  0  0  0  0  0
    3.3505   -3.8249    0.0000 O   0  0  0  0  0  0  0  0  0  0  0  0
    4.4635   -2.5566    0.0000 C   0  0  0  0  0  0  0  0  0  0  0  0
    3.6045   -2.6092    0.0000 C   0  0  0  0  0  0  0  0  0  0  0  0
    2.7535   -2.8271    0.0000 C   0  0  0  0  0  0  0  0  0  0  0  0
    2.0233   -3.2787    0.0000 C   0  0  0  0  0  0  0  0  0  0  0  0
    1.8762   -2.8162    0.0000 C   0  0  0  0  0  0  0  0  0  0  0  0
    4.0660   -1.8337    0.0000 N   0  0  0  0  0  0  0  0  0  0  0  0
    3.2434   -1.5577    0.0000 C   0  0  0  0  0  0  0  0  0  0  0  0
    4.4934   -1.1280    0.0000 C   0  0  0  0  0  0  0  0  0  0  0  0
    5.3117   -1.1410    0.0000 O   0  0  0  0  0  0  0  0  0  0  0  0
    4.0959   -0.4050    0.0000 C   0  0  0  0  0  0  0  0  0  0  0  0
    4.5232    0.3007    0.0000 N   0  0  0  0  0  0  0  0  0  0  0  0
    4.1258    1.0236    0.0000 C   0  0  0  0  0  0  0  0  0  0  0  0
    3.3149    0.8657    0.0000 O   0  0  0  0  0  0  0  0  0  0  0  0
    4.5531    1.7293    0.0000 C   0  0  0  0  0  0  0  0  0  0  0  0
    3.6553    1.8175    0.0000 C   0  0  0  0  0  0  0  0  0  0  0  0
    2.7943    2.0593    0.0000 C   0  0  0  0  0  0  0  0  0  0  0  0
    2.0088    2.3310    0.0000 C   0  0  0  0  0  0  0  0  0  0  0  0
    2.2786    2.7562    0.0000 C   0  0  0  0  0  0  0  0  0  0  0  0
    4.1556    2.4522    0.0000 N   0  0  0  0  0  0  0  0  0  0  0  0
    3.4700    3.0113    0.0000 C   0  0  0  0  0  0  0  0  0  0  0  0
    4.5830    3.1579    0.0000 C   0  0  0  0  0  0  0  0  0  0  0  0
    5.2206    2.6464    0.0000 O   0  0  0  0  0  0  0  0  0  0  0  0
    4.1855    3.8809    0.0000 C   0  0  0  0  0  0  0  0  0  0  0  0
    4.6129    4.5865    0.0000 N   0  0  0  0  0  0  0  0  0  0  0  0
    4.0630    5.2537    0.0000 C   0  0  0  0  0  0  0  0  0  0  0  0
    5.5154    4.6069    0.0000 C   0  0  0  0  0  0  0  0  0  0  0  0
    5.3458    3.8309    0.0000 O   0  0  0  0  0  0  0  0  0  0  0  0
    3.1717   -0.3519    0.0000 C   0  0  0  0  0  0  0  0  0  0  0  0
    2.4611    0.1176    0.0000 C   0  0  0  0  0  0  0  0  0  0  0  0
    2.3987   -0.7747    0.0000 C   0  0  0  0  0  0  0  0  0  0  0  0
  1  2  1  0  0  0  0
  2  3  1  0  0  0  0
  3  4  1  0  0  0  0
  4  5  1  0  0  0  0
  5  6  2  0  0  0  0
  5  7  1  0  0  0  0
  7  8  1  0  0  0  0
  8  9  1  1  0  0  0
  8 10  1  0  0  0  0
 10 11  1  6  0  0  0
 10 12  1  0  0  0  0
 12 13  1  0  0  0  0
 13 14  2  0  0  0  0
 14 15  1  0  0  0  0
  7 16  1  0  0  0  0
 16 17  1  0  0  0  0
 16 18  1  0  0  0  0
 18 19  2  0  0  0  0
 18 20  1  0  0  0  0
 20 21  1  0  0  0  0
 21 22  1  0  0  0  0
 21 23  1  0  0  0  0
 20 24  1  0  0  0  0
 24 25  1  0  0  0  0
 24 26  1  0  0  0  0
 26 27  2  0  0  0  0
 26 28  1  0  0  0  0
 28 29  1  0  0  0  0
 29 30  1  0  0  0  0
 30 31  1  0  0  0  0
 30 32  1  0  0  0  0
 28 33  1  0  0  0  0
 33 34  1  0  0  0  0
 33 35  1  0  0  0  0
 35 36  2  0  0  0  0
 35 37  1  0  0  0  0
 37 38  1  0  0  0  0
 38 39  1  0  0  0  0
 39 40  1  0  0  0  0
 39 41  1  0  0  0  0
 37 42  1  0  0  0  0
 42 43  1  0  0  0  0
 42 44  1  0  0  0  0
 44 45  2  0  0  0  0
 44 46  1  0  0  0  0
 46 47  1  6  0  0  0
 46 48  1  0  0  0  0
 48 49  1  0  0  0  0
 49 50  2  0  0  0  0
 49 51  1  0  0  0  0
 51 52  1  0  0  0  0
 51 53  1  0  0  0  0
 53 54  1  0  0  0  0
 54 55  2  0  0  0  0
 54 56  1  0  0  0  0
 56 57  1  0  0  0  0
 57 58  1  0  0  0  0
 58 59  1  0  0  0  0
 58 60  1  0  0  0  0
 56 61  1  0  0  0  0
 61 62  1  0  0  0  0
 61 63  1  0  0  0  0
 63 64  2  0  0  0  0
 63 65  1  0  0  0  0
 65 66  1  0  0  0  0
 66 67  1  0  0  0  0
 67 68  2  0  0  0  0
 67 69  1  0  0  0  0
 69 70  1  0  0  0  0
 70 71  1  0  0  0  0
 71 72  1  0  0  0  0
 71 73  1  0  0  0  0
 69 74  1  0  0  0  0
 74 75  1  0  0  0  0
 74 76  1  0  0  0  0
 76 77  2  0  0  0  0
 76 78  1  0  0  0  0
 78 79  1  0  0  0  0
 79 80  1  0  0  0  0
 79 81  1  0  0  0  0
  3 81  1  0  0  0  0
 81 82  2  0  0  0  0
 65 83  1  0  0  0  0
 83 84  1  0  0  0  0
 83 85  1  0  0  0  0
M  END

> <ChembankId>
460

> <SMILES>
CCC1NC(=O)C([C@H](O)[C@H](C)C/C=C/C)N(C)C(=O)C(C(C)C)N(C)C(=O)C(CC(C)C)N(C)C(=O)C(CC(C)C)N(C)C(=O)[C@@H](C)NC(=O)C(C)NC(=O)C(CC(C)C)N(C)C(=O)C(NC(=O)C(CC(C)C)N(C)C(=O)CN(C)C1=O)C(C)C

> <InChI>
1/C62H111N11O12/c1-25-27-28-40(15)52(75)51-56(79)65-43(26-2)58(81)67(18)33-48(74)68(19)44(29-34(3)4)55(78)66-49(38(11)12)61(84)69(20)45(30-35(5)6)54(77)63-41(16)53(76)64-42(17)57(80)70(21)46(31-36(7)8)59(82)71(22)47(32-37(9)10)60(83)72(23)50(39(13)14)62(85)73(51)24/h25,27,34-47,49-52,75H,26,28-33H2,1-24H3,(H,63,77)(H,64,76)(H,65,79)(H,66,78)/b27-25+/t40-,41+,42-,43-,44+,45+,46+,47+,49+,50-,51-,52-/m1/s1

$$$$
462
  Marvin  11101114192D          

 28 31  0  0  1  0            999 V2000
    2.0630   -1.4167    0.0000 C   0  0  0  0  0  0  0  0  0  0  0  0
    2.8390   -1.6970    0.0000 C   0  0  2  0  0  0  0  0  0  0  0  0
    3.5218   -1.2340    0.0000 C   0  0  0  0  0  0  0  0  0  0  0  0
    4.1731   -1.7404    0.0000 C   0  0  0  0  0  0  0  0  0  0  0  0
    4.9853   -1.5952    0.0000 C   0  0  0  0  0  0  0  0  0  0  0  0
    5.2655   -0.8192    0.0000 C   0  0  0  0  0  0  0  0  0  0  0  0
    6.0777   -0.6740    0.0000 C   0  0  0  0  0  0  0  0  0  0  0  0
    6.6095   -1.3047    0.0000 C   0  0  0  0  0  0  0  0  0  0  0  0
    7.4216   -1.1595    0.0000 C   0  0  0  0  0  0  0  0  0  0  0  0
    7.9534   -1.7902    0.0000 C   0  0  0  0  0  0  0  0  0  0  0  0
    8.7655   -1.6450    0.0000 O   0  0  0  0  0  0  0  0  0  0  0  0
    7.6731   -2.5662    0.0000 C   0  0  0  0  0  0  0  0  0  0  0  0
    6.8610   -2.7114    0.0000 C   0  0  0  0  0  0  0  0  0  0  0  0
    6.3292   -2.0807    0.0000 C   0  0  0  0  0  0  0  0  0  0  0  0
    6.0489   -2.8566    0.0000 C   0  0  0  0  0  0  0  0  0  0  0  0
    5.5171   -2.2259    0.0000 C   0  0  0  0  0  0  0  0  0  0  0  0
    5.5766   -3.0487    0.0000 F   0  0  0  0  0  0  0  0  0  0  0  0
    5.2368   -3.0018    0.0000 C   0  0  1  0  0  0  0  0  0  0  0  0
    5.7686   -3.6325    0.0000 O   0  0  0  0  0  0  0  0  0  0  0  0
    4.4247   -3.1470    0.0000 C   0  0  0  0  0  0  0  0  0  0  0  0
    3.8928   -2.5163    0.0000 C   0  0  0  0  0  0  0  0  0  0  0  0
    3.5330   -3.2587    0.0000 C   0  0  0  0  0  0  0  0  0  0  0  0
    3.0683   -2.4895    0.0000 C   0  0  0  0  0  0  0  0  0  0  0  0
    2.9469   -3.3055    0.0000 O   0  0  0  0  0  0  0  0  0  0  0  0
    2.3074   -2.8084    0.0000 C   0  0  0  0  0  0  0  0  0  0  0  0
    2.2031   -3.6268    0.0000 O   0  0  0  0  0  0  0  0  0  0  0  0
    1.6508   -2.3089    0.0000 C   0  0  0  0  0  0  0  0  0  0  0  0
    0.8899   -2.6277    0.0000 O   0  0  0  0  0  0  0  0  0  0  0  0
  2  1  1  6  0  0  0
  2  3  1  0  0  0  0
  3  4  1  0  0  0  0
  4  5  1  0  0  0  0
  5  6  1  0  0  0  0
  6  7  1  0  0  0  0
  7  8  1  0  0  0  0
  8  9  2  0  0  0  0
  9 10  1  0  0  0  0
 10 11  2  0  0  0  0
 10 12  1  0  0  0  0
 12 13  2  0  0  0  0
 13 14  1  0  0  0  0
  8 14  1  0  0  0  0
 14 15  1  0  0  0  0
 14 16  1  0  0  0  0
  5 16  1  0  0  0  0
 16 17  1  0  0  0  0
 16 18  1  0  0  0  0
 18 19  1  1  0  0  0
 18 20  1  0  0  0  0
 20 21  1  0  0  0  0
  4 21  1  0  0  0  0
 21 22  1  0  0  0  0
 21 23  1  0  0  0  0
  2 23  1  0  0  0  0
 23 24  1  0  0  0  0
 23 25  1  0  0  0  0
 25 26  2  0  0  0  0
 25 27  1  0  0  0  0
 27 28  1  0  0  0  0
M  END

> <ChembankId>
462

> <SMILES>
C[C@@H]1CC2C3CCC4=CC(=O)C=CC4(C)C3(F)[C@@H](O)CC2(C)C1(O)C(=O)CO

> <InChI>
1/C22H29FO5/c1-12-8-16-15-5-4-13-9-14(25)6-7-19(13,2)21(15,23)17(26)10-20(16,3)22(12,28)18(27)11-24/h6-7,9,12,15-17,24,26,28H,4-5,8,10-11H2,1-3H3/t12-,15+,16-,17-,19+,20+,21+,22+/m1/s1

$$$$
463
  Marvin  11101114192D          

 11 11  0  0  1  0            999 V2000
    2.1434    2.0625    0.0000 O   0  0  0  0  0  0  0  0  0  0  0  0
    2.1434    1.2375    0.0000 C   0  0  0  0  0  0  0  0  0  0  0  0
    1.4289    0.8250    0.0000 C   0  0  1  0  0  0  0  0  0  0  0  0
    1.4289   -0.0000    0.0000 O   0  0  0  0  0  0  0  0  0  0  0  0
    0.7145   -0.4125    0.0000 C   0  0  0  0  0  0  0  0  0  0  0  0
    0.7145   -1.2375    0.0000 O   0  0  0  0  0  0  0  0  0  0  0  0
    0.0000    0.0000    0.0000 C   0  0  0  0  0  0  0  0  0  0  0  0
    0.0000    0.8250    0.0000 C   0  0  1  0  0  0  0  0  0  0  0  0
   -0.7145    1.2375    0.0000 O   0  0  0  0  0  0  0  0  0  0  0  0
    0.7145    1.2375    0.0000 C   0  0  2  0  0  0  0  0  0  0  0  0
    0.7145    2.0625    0.0000 O   0  0  0  0  0  0  0  0  0  0  0  0
  1  2  1  0  0  0  0
  3  2  1  1  0  0  0
  3  4  1  0  0  0  0
  4  5  1  0  0  0  0
  5  6  1  0  0  0  0
  5  7  1  0  0  0  0
  7  8  1  0  0  0  0
  8  9  1  1  0  0  0
  8 10  1  0  0  0  0
  3 10  1  0  0  0  0
 10 11  1  6  0  0  0
M  END

> <ChembankId>
463

> <SMILES>
OC[C@H]1OC(O)C[C@@H](O)[C@@H]1O

> <InChI>
1/C6H12O5/c7-2-4-6(10)3(8)1-5(9)11-4/h3-10H,1-2H2/t3-,4+,5+,6-/m0/s1

$$$$
464
  Marvin  11101114192D          

 33 35  0  0  1  0            999 V2000
    2.1434   -4.5375    0.0000 C   0  0  0  0  0  0  0  0  0  0  0  0
    2.8579   -4.9500    0.0000 N   0  0  0  0  0  0  0  0  0  0  0  0
    2.8579   -5.7750    0.0000 C   0  0  0  0  0  0  0  0  0  0  0  0
    2.1434   -6.1875    0.0000 C   0  0  0  0  0  0  0  0  0  0  0  0
    2.1434   -7.0125    0.0000 C   0  0  0  0  0  0  0  0  0  0  0  0
    1.4289   -7.4250    0.0000 N   0  0  0  0  0  0  0  0  0  0  0  0
    0.7145   -7.0125    0.0000 C   0  0  0  0  0  0  0  0  0  0  0  0
    0.0000   -7.4250    0.0000 N   0  0  0  0  0  0  0  0  0  0  0  0
   -0.7145   -7.0125    0.0000 C   0  0  0  0  0  0  0  0  0  0  0  0
   -1.4289   -7.4250    0.0000 N   0  0  0  0  0  0  0  0  0  0  0  0
   -0.7145   -6.1875    0.0000 N   0  0  0  0  0  0  0  0  0  0  0  0
    0.0000   -5.7750    0.0000 C   0  0  0  0  0  0  0  0  0  0  0  0
    0.0000   -4.9500    0.0000 N   0  0  0  0  0  0  0  0  0  0  0  0
    0.7145   -6.1875    0.0000 C   0  0  0  0  0  0  0  0  0  0  0  0
    1.4289   -5.7750    0.0000 N   0  0  0  0  0  0  0  0  0  0  0  0
    3.5724   -4.5375    0.0000 C   0  0  0  0  0  0  0  0  0  0  0  0
    3.5724   -3.7125    0.0000 C   0  0  0  0  0  0  0  0  0  0  0  0
    4.2868   -3.3000    0.0000 C   0  0  0  0  0  0  0  0  0  0  0  0
    5.0013   -3.7125    0.0000 C   0  0  0  0  0  0  0  0  0  0  0  0
    5.0013   -4.5375    0.0000 C   0  0  0  0  0  0  0  0  0  0  0  0
    4.2868   -4.9500    0.0000 C   0  0  0  0  0  0  0  0  0  0  0  0
    5.7158   -3.3000    0.0000 C   0  0  0  0  0  0  0  0  0  0  0  0
    5.7158   -2.4750    0.0000 O   0  0  0  0  0  0  0  0  0  0  0  0
    6.4302   -3.7125    0.0000 N   0  0  0  0  0  0  0  0  0  0  0  0
    7.1447   -3.3000    0.0000 C   0  0  1  0  0  0  0  0  0  0  0  0
    7.8592   -3.7125    0.0000 C   0  0  0  0  0  0  0  0  0  0  0  0
    8.5737   -3.3000    0.0000 C   0  0  0  0  0  0  0  0  0  0  0  0
    9.2881   -3.7125    0.0000 C   0  0  0  0  0  0  0  0  0  0  0  0
   10.0026   -3.3000    0.0000 O   0  0  0  0  0  0  0  0  0  0  0  0
    9.2881   -4.5375    0.0000 O   0  0  0  0  0  0  0  0  0  0  0  0
    7.1447   -2.4750    0.0000 C   0  0  0  0  0  0  0  0  0  0  0  0
    7.8592   -2.0625    0.0000 O   0  0  0  0  0  0  0  0  0  0  0  0
    6.4302   -2.0625    0.0000 O   0  0  0  0  0  0  0  0  0  0  0  0
  1  2  1  0  0  0  0
  2  3  1  0  0  0  0
  3  4  1  0  0  0  0
  4  5  4  0  0  0  0
  5  6  4  0  0  0  0
  6  7  4  0  0  0  0
  7  8  4  0  0  0  0
  8  9  4  0  0  0  0
  9 10  1  0  0  0  0
  9 11  4  0  0  0  0
 11 12  4  0  0  0  0
 12 13  1  0  0  0  0
 12 14  4  0  0  0  0
  7 14  4  0  0  0  0
 14 15  4  0  0  0  0
  4 15  4  0  0  0  0
  2 16  1  0  0  0  0
 16 17  4  0  0  0  0
 17 18  4  0  0  0  0
 18 19  4  0  0  0  0
 19 20  4  0  0  0  0
 20 21  4  0  0  0  0
 16 21  4  0  0  0  0
 19 22  1  0  0  0  0
 22 23  2  0  0  0  0
 22 24  1  0  0  0  0
 25 24  1  6  0  0  0
 25 26  1  0  0  0  0
 26 27  1  0  0  0  0
 27 28  1  0  0  0  0
 28 29  2  0  0  0  0
 28 30  1  0  0  0  0
 25 31  1  0  0  0  0
 31 32  2  0  0  0  0
 31 33  1  0  0  0  0
M  END

> <ChembankId>
464

> <SMILES>
CN(Cc1cnc2nc(N)nc(N)c2n1)c3ccc(cc3)C(=O)N[C@@H](CCC(=O)O)C(=O)O

> <InChI>
1/C20H22N8O5/c1-28(9-11-8-23-17-15(24-11)16(21)26-20(22)27-17)12-4-2-10(3-5-12)18(31)25-13(19(32)33)6-7-14(29)30/h2-5,8,13H,6-7,9H2,1H3,(H,25,31)(H,29,30)(H,32,33)(H4,21,22,23,26,27)

$$$$
467
  Marvin  11101114192D          

 42 48  0  0  1  0            999 V2000
    1.9233   -6.0604    0.0000 C   0  0  0  0  0  0  0  0  0  0  0  0
    1.9233   -5.2354    0.0000 O   0  0  0  0  0  0  0  0  0  0  0  0
    2.6378   -4.8229    0.0000 C   0  0  0  0  0  0  0  0  0  0  0  0
    2.6378   -3.9979    0.0000 C   0  0  0  0  0  0  0  0  0  0  0  0
    3.3523   -3.5854    0.0000 C   0  0  0  0  0  0  0  0  0  0  0  0
    4.0668   -3.9979    0.0000 C   0  0  0  0  0  0  0  0  0  0  0  0
    4.0668   -4.8229    0.0000 C   0  0  0  0  0  0  0  0  0  0  0  0
    4.7812   -5.2354    0.0000 O   0  0  0  0  0  0  0  0  0  0  0  0
    4.7812   -6.0604    0.0000 C   0  0  0  0  0  0  0  0  0  0  0  0
    3.3523   -5.2354    0.0000 C   0  0  0  0  0  0  0  0  0  0  0  0
    3.3523   -6.0604    0.0000 O   0  0  0  0  0  0  0  0  0  0  0  0
    3.3523   -2.7604    0.0000 C   0  0  1  0  0  0  0  0  0  0  0  0
    2.6378   -2.3479    0.0000 C   0  0  2  0  0  0  0  0  0  0  0  0
    2.6378   -1.5229    0.0000 C   0  0  0  0  0  0  0  0  0  0  0  0
    1.8532   -1.2680    0.0000 C   0  0  0  0  0  0  0  0  0  0  0  0
    1.3683   -1.9354    0.0000 O   0  0  0  0  0  0  0  0  0  0  0  0
    1.8532   -2.6029    0.0000 C   0  0  0  0  0  0  0  0  0  0  0  0
    1.5983   -3.3875    0.0000 O   0  0  0  0  0  0  0  0  0  0  0  0
    3.3523   -1.1104    0.0000 C   0  0  0  0  0  0  0  0  0  0  0  0
    3.3523   -0.2854    0.0000 O   0  0  0  0  0  0  0  0  0  0  0  0
    4.0668    0.1271    0.0000 C   0  0  0  0  0  0  0  0  0  0  0  0
    4.7812   -0.2854    0.0000 O   0  0  0  0  0  0  0  0  0  0  0  0
    5.4957    0.1271    0.0000 C   0  0  0  0  0  0  0  0  0  0  0  0
    6.2102   -0.2854    0.0000 C   0  0  0  0  0  0  0  0  0  0  0  0
    6.9246    0.1271    0.0000 O   0  0  0  0  0  0  0  0  0  0  0  0
    6.9246    0.9521    0.0000 C   0  0  0  0  0  0  0  0  0  0  0  0
    7.6391    1.3646    0.0000 C   0  0  0  0  0  0  0  0  0  0  0  0
    6.2102    1.3646    0.0000 O   0  0  0  0  0  0  0  0  0  0  0  0
    5.4957    0.9521    0.0000 C   0  0  0  0  0  0  0  0  0  0  0  0
    4.7812    1.3646    0.0000 C   0  0  0  0  0  0  0  0  0  0  0  0
    4.7812    2.1896    0.0000 O   0  0  0  0  0  0  0  0  0  0  0  0
    4.0668    0.9521    0.0000 C   0  0  0  0  0  0  0  0  0  0  0  0
    3.3523    1.3646    0.0000 O   0  0  0  0  0  0  0  0  0  0  0  0
    4.0668   -1.5229    0.0000 C   0  0  0  0  0  0  0  0  0  0  0  0
    4.7812   -1.1104    0.0000 C   0  0  0  0  0  0  0  0  0  0  0  0
    5.4957   -1.5229    0.0000 C   0  0  0  0  0  0  0  0  0  0  0  0
    6.2803   -1.2680    0.0000 O   0  0  0  0  0  0  0  0  0  0  0  0
    6.7652   -1.9354    0.0000 C   0  0  0  0  0  0  0  0  0  0  0  0
    6.2803   -2.6029    0.0000 O   0  0  0  0  0  0  0  0  0  0  0  0
    5.4957   -2.3479    0.0000 C   0  0  0  0  0  0  0  0  0  0  0  0
    4.7812   -2.7604    0.0000 C   0  0  0  0  0  0  0  0  0  0  0  0
    4.0668   -2.3479    0.0000 C   0  0  0  0  0  0  0  0  0  0  0  0
  1  2  1  0  0  0  0
  2  3  1  0  0  0  0
  3  4  4  0  0  0  0
  4  5  4  0  0  0  0
  5  6  4  0  0  0  0
  6  7  4  0  0  0  0
  7  8  1  0  0  0  0
  8  9  1  0  0  0  0
  7 10  4  0  0  0  0
  3 10  4  0  0  0  0
 10 11  1  0  0  0  0
 12  5  1  1  0  0  0
 12 13  1  0  0  0  0
 13 14  1  0  0  0  0
 14 15  1  0  0  0  0
 15 16  1  0  0  0  0
 16 17  1  0  0  0  0
 13 17  1  1  0  0  0
 17 18  2  0  0  0  0
 14 19  1  0  0  0  0
 19 20  1  0  0  0  0
 20 21  1  0  0  0  0
 21 22  1  0  0  0  0
 22 23  1  0  0  0  0
 23 24  1  0  0  0  0
 24 25  1  0  0  0  0
 25 26  1  0  0  0  0
 26 27  1  0  0  0  0
 26 28  1  0  0  0  0
 28 29  1  0  0  0  0
 23 29  1  0  0  0  0
 29 30  1  0  0  0  0
 30 31  1  0  0  0  0
 30 32  1  0  0  0  0
 21 32  1  0  0  0  0
 32 33  1  0  0  0  0
 19 34  1  0  0  0  0
 34 35  4  0  0  0  0
 35 36  4  0  0  0  0
 36 37  1  0  0  0  0
 37 38  1  0  0  0  0
 38 39  1  0  0  0  0
 39 40  1  0  0  0  0
 36 40  4  0  0  0  0
 40 41  4  0  0  0  0
 41 42  4  0  0  0  0
 12 42  1  0  0  0  0
 34 42  4  0  0  0  0
M  END

> <ChembankId>
467

> <SMILES>
COc1cc(cc(OC)c1O)[C@H]2[C@@H]3C(COC3=O)C(OC4OC5COC(C)OC5C(O)C4O)c6cc7OCOc7cc26

> <InChI>
1/C29H32O13/c1-11-36-9-20-27(40-11)24(31)25(32)29(41-20)42-26-14-7-17-16(38-10-39-17)6-13(14)21(22-15(26)8-37-28(22)33)12-4-18(34-2)23(30)19(5-12)35-3/h4-7,11,15,20-22,24-27,29-32H,8-10H2,1-3H3/t11-,15+,20-,21-,22-,24-,25-,26+,27-,29+/m0/s1

$$$$
1000092
  Marvin  11101114192D          

 20 22  0  0  0  0            999 V2000
    0.0000   -1.6500    0.0000 C   0  0  0  0  0  0  0  0  0  0  0  0
    0.7145   -1.2375    0.0000 O   0  0  0  0  0  0  0  0  0  0  0  0
    0.7145   -0.4125    0.0000 C   0  0  0  0  0  0  0  0  0  0  0  0
    0.0000    0.0000    0.0000 C   0  0  0  0  0  0  0  0  0  0  0  0
    0.0000    0.8250    0.0000 C   0  0  0  0  0  0  0  0  0  0  0  0
    0.7145    1.2375    0.0000 C   0  0  0  0  0  0  0  0  0  0  0  0
    1.4289    0.8250    0.0000 C   0  0  0  0  0  0  0  0  0  0  0  0
    1.4289    0.0000    0.0000 C   0  0  0  0  0  0  0  0  0  0  0  0
    2.1434   -0.4125    0.0000 O   0  0  0  0  0  0  0  0  0  0  0  0
    2.1434   -1.2375    0.0000 C   0  0  0  0  0  0  0  0  0  0  0  0
    2.8109   -1.7224    0.0000 C   0  0  0  0  0  0  0  0  0  0  0  0
    2.5559   -2.5070    0.0000 C   0  0  0  0  0  0  0  0  0  0  0  0
    1.7309   -2.5070    0.0000 C   0  0  0  0  0  0  0  0  0  0  0  0
    1.4760   -1.7224    0.0000 C   0  0  0  0  0  0  0  0  0  0  0  0
    0.7145    2.0625    0.0000 C   0  0  0  0  0  0  0  0  0  0  0  0
    0.0470    2.5474    0.0000 C   0  0  0  0  0  0  0  0  0  0  0  0
    0.3020    3.3320    0.0000 N   0  0  0  0  0  0  0  0  0  0  0  0
    1.1270    3.3320    0.0000 C   0  0  0  0  0  0  0  0  0  0  0  0
    1.6119    3.9995    0.0000 O   0  0  0  0  0  0  0  0  0  0  0  0
    1.3819    2.5474    0.0000 C   0  0  0  0  0  0  0  0  0  0  0  0
  1  2  1  0  0  0  0
  2  3  1  0  0  0  0
  3  4  4  0  0  0  0
  4  5  4  0  0  0  0
  5  6  4  0  0  0  0
  6  7  4  0  0  0  0
  7  8  4  0  0  0  0
  3  8  4  0  0  0  0
  8  9  1  0  0  0  0
  9 10  1  0  0  0  0
 10 11  1  0  0  0  0
 11 12  1  0  0  0  0
 12 13  1  0  0  0  0
 13 14  1  0  0  0  0
 10 14  1  0  0  0  0
  6 15  1  0  0  0  0
 15 16  1  0  0  0  0
 16 17  1  0  0  0  0
 17 18  1  0  0  0  0
 18 19  2  0  0  0  0
 18 20  1  0  0  0  0
 15 20  1  0  0  0  0
M  END

> <ChembankId>
1000092

> <SMILES>
COc1ccc(cc1OC2CCCC2)C3CNC(=O)C3

> <InChI>
1/C16H21NO3/c1-19-14-7-6-11(12-9-16(18)17-10-12)8-15(14)20-13-4-2-3-5-13/h6-8,12-13H,2-5,9-10H2,1H3,(H,17,18)

$$$$
1907753
  Marvin  11101114192D          

 35 39  0  0  1  0            999 V2000
   -2.1254   -4.4454    0.0000 C   0  0  0  0  0  0  0  0  0  0  0  0
   -1.3859   -4.8111    0.0000 C   0  0  0  0  0  0  0  0  0  0  0  0
   -0.6994   -4.3535    0.0000 C   0  0  2  0  0  0  0  0  0  0  0  0
   -0.6661   -3.5292    0.0000 C   0  0  2  0  0  0  0  0  0  0  0  0
   -1.3134   -3.0177    0.0000 C   0  0  0  0  0  0  0  0  0  0  0  0
    0.1282   -3.3062    0.0000 C   0  0  0  0  0  0  0  0  0  0  0  0
    0.5857   -3.9927    0.0000 C   0  0  2  0  0  0  0  0  0  0  0  0
    1.4021   -4.1120    0.0000 C   0  0  1  0  0  0  0  0  0  0  0  0
    2.0369   -3.5852    0.0000 C   0  0  0  0  0  0  0  0  0  0  0  0
    2.7342   -4.0262    0.0000 C   0  0  1  0  0  0  0  0  0  0  0  0
    3.5285   -3.8032    0.0000 C   0  0  0  0  0  0  0  0  0  0  0  0
    3.7324   -3.0038    0.0000 C   0  0  0  0  0  0  0  0  0  0  0  0
    4.5267   -2.7808    0.0000 C   0  0  0  0  0  0  0  0  0  0  0  0
    4.7307   -1.9814    0.0000 O   0  0  0  0  0  0  0  0  0  0  0  0
    5.1170   -3.3571    0.0000 C   0  0  0  0  0  0  0  0  0  0  0  0
    4.9130   -4.1565    0.0000 C   0  0  0  0  0  0  0  0  0  0  0  0
    4.1187   -4.3795    0.0000 O   0  0  0  0  0  0  0  0  0  0  0  0
    5.5033   -4.7328    0.0000 C   0  0  2  0  0  0  0  0  0  0  0  0
    5.2993   -5.5322    0.0000 C   0  0  0  0  0  0  0  0  0  0  0  0
    5.8896   -6.1086    0.0000 C   0  0  0  0  0  0  0  0  0  0  0  0
    5.6856   -6.9080    0.0000 C   0  0  0  0  0  0  0  0  0  0  0  0
    4.8913   -7.1310    0.0000 N   0  0  0  0  0  0  0  0  0  0  0  0
    4.3011   -6.5546    0.0000 C   0  0  0  0  0  0  0  0  0  0  0  0
    4.5050   -5.7553    0.0000 O   0  0  0  0  0  0  0  0  0  0  0  0
    3.5068   -6.7777    0.0000 C   0  0  0  0  0  0  0  0  0  0  0  0
    2.9165   -6.2013    0.0000 C   0  0  0  0  0  0  0  0  0  0  0  0
    3.1205   -5.4019    0.0000 C   0  0  0  0  0  0  0  0  0  0  0  0
    2.5302   -4.8256    0.0000 C   0  0  2  0  0  0  0  0  0  0  0  0
    1.7069   -4.8786    0.0000 C   0  0  1  0  0  0  0  0  0  0  0  0
    1.1954   -5.5259    0.0000 C   0  0  0  0  0  0  0  0  0  0  0  0
    0.3791   -5.4066    0.0000 C   0  0  0  0  0  0  0  0  0  0  0  0
    0.0742   -4.6400    0.0000 C   0  0  1  0  0  0  0  0  0  0  0  0
    6.1644   -4.1847    0.0000 N   0  0  0  0  0  0  0  0  0  0  0  0
    5.9413   -3.3904    0.0000 C   0  0  0  0  0  0  0  0  0  0  0  0
    6.4528   -2.7431    0.0000 O   0  0  0  0  0  0  0  0  0  0  0  0
  1  2  1  0  0  0  0
  3  2  1  6  0  0  0
  3  4  1  0  0  0  0
  4  5  1  6  0  0  0
  4  6  1  0  0  0  0
  7  6  1  6  0  0  0
  7  8  1  0  0  0  0
  8  9  1  1  0  0  0
 10  9  1  1  0  0  0
 10 11  1  0  0  0  0
 11 12  1  0  0  0  0
 12 13  1  0  0  0  0
 13 14  2  0  0  0  0
 13 15  1  0  0  0  0
 15 16  2  0  0  0  0
 16 17  1  0  0  0  0
 16 18  1  0  0  0  0
 18 19  1  0  0  0  0
 19 20  1  0  0  0  0
 20 21  1  0  0  0  0
 21 22  1  0  0  0  0
 22 23  1  0  0  0  0
 23 24  2  0  0  0  0
 23 25  1  0  0  0  0
 25 26  2  0  0  0  0
 26 27  1  0  0  0  0
 28 27  1  6  0  0  0
 10 28  1  0  0  0  0
 28 29  1  0  0  0  0
  8 29  1  0  0  0  0
 29 30  1  1  0  0  0
 30 31  2  0  0  0  0
 32 31  1  1  0  0  0
  3 32  1  0  0  0  0
  7 32  1  0  0  0  0
 18 33  1  1  0  0  0
 33 34  1  0  0  0  0
 15 34  1  0  0  0  0
 34 35  2  0  0  0  0
M  END

> <ChembankId>
1907753

> <SMILES>
CC[C@@H]1[C@H](C)C[C@@H]2[C@H]3C[C@H]4CCC(=O)C5=C(O)[C@H](CCCNC(=O)/C=C\C[C@@H]4[C@H]3C=C[C@@H]12)NC5=O

> <InChI>
1/C29H40N2O4/c1-3-18-16(2)14-22-20(18)10-11-21-19-6-4-8-26(33)30-13-5-7-24-28(34)27(29(35)31-24)25(32)12-9-17(19)15-23(21)22/h4,8,10-11,16-24,34H,3,5-7,9,12-15H2,1-2H3,(H,30,33)(H,31,35)

$$$$
2122563
  Marvin  11101114192D          

 42 43  0  0  0  0            999 V2000
    4.7973   -2.4545    0.0000 C   0  0  0  0  0  0  0  0  0  0  0  0
    4.8588   -1.5823    0.0000 O   0  0  0  0  0  0  0  0  0  0  0  0
    4.6645   -0.6829    0.0000 C   0  0  0  0  0  0  0  0  0  0  0  0
    4.0096   -1.1847    0.0000 C   0  0  0  0  0  0  0  0  0  0  0  0
    3.3300   -0.7169    0.0000 C   0  0  0  0  0  0  0  0  0  0  0  0
    2.6822   -1.2567    0.0000 C   0  0  0  0  0  0  0  0  0  0  0  0
    3.5649    0.0739    0.0000 C   0  0  0  0  0  0  0  0  0  0  0  0
    3.2125    0.9051    0.0000 C   0  0  0  0  0  0  0  0  0  0  0  0
    2.3901    0.9704    0.0000 C   0  0  0  0  0  0  0  0  0  0  0  0
    1.7061    0.4370    0.0000 N   0  0  0  0  0  0  0  0  0  0  0  0
    1.0044   -0.0236    0.0000 C   0  0  0  0  0  0  0  0  0  0  0  0
    0.2590   -0.4012    0.0000 C   0  0  0  0  0  0  0  0  0  0  0  0
   -0.5806   -0.4317    0.0000 C   0  0  0  0  0  0  0  0  0  0  0  0
    2.0355    1.7153    0.0000 C   0  0  0  0  0  0  0  0  0  0  0  0
    1.2432    2.0165    0.0000 O   0  0  0  0  0  0  0  0  0  0  0  0
    2.5032    2.3949    0.0000 C   0  0  0  0  0  0  0  0  0  0  0  0
    3.3256    2.3296    0.0000 C   0  0  0  0  0  0  0  0  0  0  0  0
    3.7934    3.0092    0.0000 N   0  0  0  0  0  0  0  0  0  0  0  0
    3.4387    3.7540    0.0000 C   0  0  0  0  0  0  0  0  0  0  0  0
    2.6462    4.0506    0.0000 O   0  0  0  0  0  0  0  0  0  0  0  0
    3.9065    4.4336    0.0000 C   0  0  0  0  0  0  0  0  0  0  0  0
    4.7289    4.3683    0.0000 C   0  0  0  0  0  0  0  0  0  0  0  0
    5.0835    3.6235    0.0000 C   0  0  0  0  0  0  0  0  0  0  0  0
    5.9060    3.5582    0.0000 C   0  0  0  0  0  0  0  0  0  0  0  0
    6.2606    2.8133    0.0000 C   0  0  0  0  0  0  0  0  0  0  0  0
    6.9394    3.3555    0.0000 O   0  0  0  0  0  0  0  0  0  0  0  0
    7.6234    3.8416    0.0000 C   0  0  0  0  0  0  0  0  0  0  0  0
    5.7929    2.1337    0.0000 C   0  0  0  0  0  0  0  0  0  0  0  0
    6.7341    2.0521    0.0000 O   0  0  0  0  0  0  0  0  0  0  0  0
    7.6034    1.7553    0.0000 C   0  0  0  0  0  0  0  0  0  0  0  0
    8.4418    2.0276    0.0000 O   0  0  0  0  0  0  0  0  0  0  0  0
    8.0702    1.0458    0.0000 N   0  0  0  0  0  0  0  0  0  0  0  0
    6.1475    1.3888    0.0000 C   0  0  0  0  0  0  0  0  0  0  0  0
    5.6798    0.7093    0.0000 C   0  0  0  0  0  0  0  0  0  0  0  0
    6.0345   -0.0356    0.0000 C   0  0  0  0  0  0  0  0  0  0  0  0
    6.8188   -0.3912    0.0000 C   0  0  0  0  0  0  0  0  0  0  0  0
    5.5667   -0.7152    0.0000 C   0  0  0  0  0  0  0  0  0  0  0  0
    6.0651   -1.4055    0.0000 O   0  0  0  0  0  0  0  0  0  0  0  0
    6.8519    0.8820    0.0000 C   0  0  0  0  0  0  0  0  0  0  0  0
    3.7085    5.2549    0.0000 C   0  0  0  0  0  0  0  0  0  0  0  0
    3.6803    1.5847    0.0000 C   0  0  0  0  0  0  0  0  0  0  0  0
    4.5007    1.5182    0.0000 O   0  0  0  0  0  0  0  0  0  0  0  0
  1  2  1  0  0  0  0
  2  3  1  0  0  0  0
  3  4  1  0  0  0  0
  4  5  1  0  0  0  0
  5  6  1  0  0  0  0
  5  7  1  0  0  0  0
  7  8  1  0  0  0  0
  8  9  2  0  0  0  0
  9 10  1  0  0  0  0
 10 11  1  0  0  0  0
 11 12  1  0  0  0  0
 12 13  2  0  0  0  0
  9 14  1  0  0  0  0
 14 15  2  0  0  0  0
 14 16  1  0  0  0  0
 16 17  2  0  0  0  0
 17 18  1  0  0  0  0
 18 19  1  0  0  0  0
 19 20  2  0  0  0  0
 19 21  1  0  0  0  0
 21 22  2  0  0  0  0
 22 23  1  4  0  0  0
 23 24  2  0  0  0  0
 24 25  1  4  0  0  0
 25 26  1  0  0  0  0
 26 27  1  0  0  0  0
 25 28  1  0  0  0  0
 28 29  1  0  0  0  0
 29 30  1  0  0  0  0
 30 31  2  0  0  0  0
 30 32  1  0  0  0  0
 28 33  1  0  0  0  0
 33 34  2  0  0  0  0
 34 35  1  4  0  0  0
 35 36  1  0  0  0  0
 35 37  1  0  0  0  0
  3 37  1  0  0  0  0
 37 38  1  0  0  0  0
 33 39  1  0  0  0  0
 21 40  1  0  0  0  0
 17 41  1  0  0  0  0
  8 41  1  0  0  0  0
 41 42  2  0  0  0  0
M  END

> <ChembankId>
2122563

> <SMILES>
COC1CC(C)CC2=C(NCC=C)C(=O)C=C(NC(=O)C(=CC=CC(OC)C(OC(=O)N)C(=CC(C)C1O)C)C)C2=O

> <InChI>
1/C31H43N3O8/c1-8-12-33-26-21-13-17(2)14-25(41-7)27(36)19(4)15-20(5)29(42-31(32)39)24(40-6)11-9-10-18(3)30(38)34-22(28(21)37)16-23(26)35/h8-11,15-17,19,24-25,27,29,33,36H,1,12-14H2,2-7H3,(H2,32,39)(H,34,38)/t17-,19+,24+,25-,27+,29+/m1/s1

$$$$
1209
  Marvin  11101114192D          

 19 20  0  0  0  0            999 V2000
    1.4289    0.0000    0.0000 C   0  0  0  0  0  0  0  0  0  0  0  0
    2.1434   -0.4125    0.0000 C   0  0  0  0  0  0  0  0  0  0  0  0
    2.8579    0.0000    0.0000 C   0  0  0  0  0  0  0  0  0  0  0  0
    2.8579    0.8250    0.0000 O   0  0  0  0  0  0  0  0  0  0  0  0
    3.5724   -0.4125    0.0000 O   0  0  0  0  0  0  0  0  0  0  0  0
    2.1434   -1.2375    0.0000 C   0  0  0  0  0  0  0  0  0  0  0  0
    2.8579   -1.6500    0.0000 C   0  0  0  0  0  0  0  0  0  0  0  0
    2.8579   -2.4750    0.0000 C   0  0  0  0  0  0  0  0  0  0  0  0
    2.1434   -2.8875    0.0000 C   0  0  0  0  0  0  0  0  0  0  0  0
    1.4289   -2.4750    0.0000 C   0  0  0  0  0  0  0  0  0  0  0  0
    1.4289   -1.6500    0.0000 C   0  0  0  0  0  0  0  0  0  0  0  0
    0.7145   -2.8875    0.0000 C   0  0  0  0  0  0  0  0  0  0  0  0
    0.7145   -3.7125    0.0000 O   0  0  0  0  0  0  0  0  0  0  0  0
    0.0000   -2.4750    0.0000 C   0  0  0  0  0  0  0  0  0  0  0  0
   -0.7145   -2.8875    0.0000 C   0  0  0  0  0  0  0  0  0  0  0  0
   -1.4289   -2.4750    0.0000 C   0  0  0  0  0  0  0  0  0  0  0  0
   -1.4289   -1.6500    0.0000 C   0  0  0  0  0  0  0  0  0  0  0  0
   -0.7145   -1.2375    0.0000 C   0  0  0  0  0  0  0  0  0  0  0  0
    0.0000   -1.6500    0.0000 C   0  0  0  0  0  0  0  0  0  0  0  0
  1  2  1  0  0  0  0
  2  3  1  0  0  0  0
  3  4  2  0  0  0  0
  3  5  1  0  0  0  0
  2  6  1  0  0  0  0
  6  7  4  0  0  0  0
  7  8  4  0  0  0  0
  8  9  4  0  0  0  0
  9 10  4  0  0  0  0
 10 11  4  0  0  0  0
  6 11  4  0  0  0  0
 10 12  1  0  0  0  0
 12 13  2  0  0  0  0
 12 14  1  0  0  0  0
 14 15  4  0  0  0  0
 15 16  4  0  0  0  0
 16 17  4  0  0  0  0
 17 18  4  0  0  0  0
 18 19  4  0  0  0  0
 14 19  4  0  0  0  0
M  END

> <ChembankId>
1209

> <SMILES>
CC(C(=O)O)c1cccc(c1)C(=O)c2ccccc2

> <InChI>
1/C16H14O3/c1-11(16(18)19)13-8-5-9-14(10-13)15(17)12-6-3-2-4-7-12/h2-11H,1H3,(H,18,19)

$$$$
610
  Marvin  11101114192D          

 20 22  0  0  0  0            999 V2000
    2.2539   -2.4750    0.0000 O   0  0  0  0  0  0  0  0  0  0  0  0
    1.4289   -2.4750    0.0000 S   0  0  0  0  0  0  0  0  0  0  0  0
    0.6039   -2.4750    0.0000 O   0  0  0  0  0  0  0  0  0  0  0  0
    1.4289   -3.3000    0.0000 N   0  0  0  0  0  0  0  0  0  0  0  0
    2.1722   -3.6580    0.0000 C   0  0  0  0  0  0  0  0  0  0  0  0
    2.3558   -4.4623    0.0000 C   0  0  0  0  0  0  0  0  0  0  0  0
    1.8414   -5.1073    0.0000 C   0  0  0  0  0  0  0  0  0  0  0  0
    1.0164   -5.1073    0.0000 N   0  0  0  0  0  0  0  0  0  0  0  0
    0.5021   -4.4623    0.0000 C   0  0  0  0  0  0  0  0  0  0  0  0
    0.6856   -3.6580    0.0000 C   0  0  0  0  0  0  0  0  0  0  0  0
    1.4289   -1.6500    0.0000 C   0  0  0  0  0  0  0  0  0  0  0  0
    0.7145   -1.2375    0.0000 C   0  0  0  0  0  0  0  0  0  0  0  0
    0.7145   -0.4125    0.0000 C   0  0  0  0  0  0  0  0  0  0  0  0
    1.4289    0.0000    0.0000 C   0  0  0  0  0  0  0  0  0  0  0  0
    2.1434   -0.4125    0.0000 C   0  0  0  0  0  0  0  0  0  0  0  0
    2.8579    0.0000    0.0000 C   0  0  0  0  0  0  0  0  0  0  0  0
    3.5724   -0.4125    0.0000 N   0  0  0  0  0  0  0  0  0  0  0  0
    3.5724   -1.2375    0.0000 C   0  0  0  0  0  0  0  0  0  0  0  0
    2.8579   -1.6500    0.0000 C   0  0  0  0  0  0  0  0  0  0  0  0
    2.1434   -1.2375    0.0000 C   0  0  0  0  0  0  0  0  0  0  0  0
  1  2  2  0  0  0  0
  2  3  2  0  0  0  0
  2  4  1  0  0  0  0
  4  5  1  0  0  0  0
  5  6  1  0  0  0  0
  6  7  1  0  0  0  0
  7  8  1  0  0  0  0
  8  9  1  0  0  0  0
  9 10  1  0  0  0  0
  4 10  1  0  0  0  0
  2 11  1  0  0  0  0
 11 12  4  0  0  0  0
 12 13  4  0  0  0  0
 13 14  4  0  0  0  0
 14 15  4  0  0  0  0
 15 16  4  0  0  0  0
 16 17  4  0  0  0  0
 17 18  4  0  0  0  0
 18 19  4  0  0  0  0
 19 20  4  0  0  0  0
 11 20  4  0  0  0  0
 15 20  4  0  0  0  0
M  END

> <ChembankId>
610

> <SMILES>
O=S(=O)(N1CCCNCC1)c2cccc3cnccc23

> <InChI>
1/C14H17N3O2S/c18-20(19,17-9-2-6-15-8-10-17)14-4-1-3-12-11-16-7-5-13(12)14/h1,3-5,7,11,15H,2,6,8-10H2

$$$$
1481
  Marvin  11101114192D          

 25 28  0  0  0  0            999 V2000
    0.0000   -1.6500    0.0000 O   0  0  0  0  0  0  0  0  0  0  0  0
    0.0000   -2.4750    0.0000 C   0  0  0  0  0  0  0  0  0  0  0  0
   -0.7145   -2.8875    0.0000 C   0  0  0  0  0  0  0  0  0  0  0  0
   -1.4289   -2.4750    0.0000 C   0  0  0  0  0  0  0  0  0  0  0  0
   -2.1434   -2.8875    0.0000 C   0  0  0  0  0  0  0  0  0  0  0  0
   -2.1434   -3.7125    0.0000 C   0  0  0  0  0  0  0  0  0  0  0  0
   -1.4289   -4.1250    0.0000 O   0  0  0  0  0  0  0  0  0  0  0  0
   -2.8579   -4.1250    0.0000 C   0  0  0  0  0  0  0  0  0  0  0  0
   -2.8579   -4.9500    0.0000 C   0  0  0  0  0  0  0  0  0  0  0  0
   -3.5724   -5.3625    0.0000 C   0  0  0  0  0  0  0  0  0  0  0  0
   -4.2868   -4.9500    0.0000 C   0  0  0  0  0  0  0  0  0  0  0  0
   -4.2868   -4.1250    0.0000 C   0  0  0  0  0  0  0  0  0  0  0  0
   -3.5724   -3.7125    0.0000 C   0  0  0  0  0  0  0  0  0  0  0  0
   -3.5724   -2.8875    0.0000 O   0  0  0  0  0  0  0  0  0  0  0  0
   -2.8579   -2.4750    0.0000 C   0  0  0  0  0  0  0  0  0  0  0  0
   -2.8579   -1.6500    0.0000 O   0  0  0  0  0  0  0  0  0  0  0  0
   -0.7145   -3.7125    0.0000 C   0  0  0  0  0  0  0  0  0  0  0  0
   -1.0500   -4.4662    0.0000 O   0  0  0  0  0  0  0  0  0  0  0  0
    0.0000   -4.1250    0.0000 O   0  0  0  0  0  0  0  0  0  0  0  0
    0.7145   -3.7125    0.0000 C   0  0  0  0  0  0  0  0  0  0  0  0
    1.4289   -4.1250    0.0000 C   0  0  0  0  0  0  0  0  0  0  0  0
    2.1434   -3.7125    0.0000 C   0  0  0  0  0  0  0  0  0  0  0  0
    2.1434   -2.8875    0.0000 C   0  0  0  0  0  0  0  0  0  0  0  0
    1.4289   -2.4750    0.0000 C   0  0  0  0  0  0  0  0  0  0  0  0
    0.7145   -2.8875    0.0000 C   0  0  0  0  0  0  0  0  0  0  0  0
  1  2  1  0  0  0  0
  2  3  4  0  0  0  0
  3  4  1  0  0  0  0
  4  5  1  0  0  0  0
  5  6  4  0  0  0  0
  6  7  1  0  0  0  0
  6  8  4  0  0  0  0
  8  9  4  0  0  0  0
  9 10  4  0  0  0  0
 10 11  4  0  0  0  0
 11 12  4  0  0  0  0
 12 13  4  0  0  0  0
  8 13  4  0  0  0  0
 13 14  4  0  0  0  0
 14 15  4  0  0  0  0
  5 15  4  0  0  0  0
 15 16  2  0  0  0  0
  3 17  4  0  0  0  0
 17 18  2  0  0  0  0
 17 19  4  0  0  0  0
 19 20  4  0  0  0  0
 20 21  4  0  0  0  0
 21 22  4  0  0  0  0
 22 23  4  0  0  0  0
 23 24  4  0  0  0  0
 24 25  4  0  0  0  0
  2 25  4  0  0  0  0
 20 25  4  0  0  0  0
M  END

> <ChembankId>
1481

> <SMILES>
Oc1c(Cc2c(O)c3ccccc3oc2=O)c(=O)oc4ccccc14

> <InChI>
1/C19H12O6/c20-16-10-5-1-3-7-14(10)24-18(22)12(16)9-13-17(21)11-6-2-4-8-15(11)25-19(13)23/h1-8,20-21H,9H2

$$$$
1602083
  Marvin  11101114192D          

 37 41  0  0  0  0            999 V2000
   -6.3587   -1.4124    0.0000 Br  0  0  0  0  0  0  0  0  0  0  0  0
   -5.5337   -1.4124    0.0000 C   0  0  0  0  0  0  0  0  0  0  0  0
   -5.1212   -0.6979    0.0000 C   0  0  0  0  0  0  0  0  0  0  0  0
   -4.2962   -0.6979    0.0000 C   0  0  0  0  0  0  0  0  0  0  0  0
   -3.8837   -1.4124    0.0000 C   0  0  0  0  0  0  0  0  0  0  0  0
   -3.0587   -1.4124    0.0000 N   0  0  0  0  0  0  0  0  0  0  0  0
   -2.6462   -0.6979    0.0000 C   0  0  0  0  0  0  0  0  0  0  0  0
   -3.0587    0.0165    0.0000 O   0  0  0  0  0  0  0  0  0  0  0  0
   -1.8212   -0.6979    0.0000 C   0  0  0  0  0  0  0  0  0  0  0  0
   -1.4087    0.0165    0.0000 C   0  0  0  0  0  0  0  0  0  0  0  0
   -0.5837    0.0165    0.0000 C   0  0  0  0  0  0  0  0  0  0  0  0
   -0.1712   -0.6979    0.0000 C   0  0  0  0  0  0  0  0  0  0  0  0
   -0.5837   -1.4124    0.0000 C   0  0  0  0  0  0  0  0  0  0  0  0
   -1.4087   -1.4124    0.0000 C   0  0  0  0  0  0  0  0  0  0  0  0
    0.6538   -0.6979    0.0000 N   0  0  0  0  0  0  0  0  0  0  0  0
    1.1387   -0.0305    0.0000 C   0  0  0  0  0  0  0  0  0  0  0  0
    0.8838    0.7541    0.0000 O   0  0  0  0  0  0  0  0  0  0  0  0
    1.9233   -0.2854    0.0000 C   0  0  0  0  0  0  0  0  0  0  0  0
    2.6378    0.1271    0.0000 C   0  0  0  0  0  0  0  0  0  0  0  0
    3.3523   -0.2854    0.0000 C   0  0  0  0  0  0  0  0  0  0  0  0
    3.3523   -1.1104    0.0000 C   0  0  0  0  0  0  0  0  0  0  0  0
    2.6378   -1.5229    0.0000 C   0  0  0  0  0  0  0  0  0  0  0  0
    1.9233   -1.1104    0.0000 C   0  0  0  0  0  0  0  0  0  0  0  0
    1.1387   -1.3654    0.0000 C   0  0  0  0  0  0  0  0  0  0  0  0
    0.8838   -2.1500    0.0000 O   0  0  0  0  0  0  0  0  0  0  0  0
    4.0668   -1.5229    0.0000 C   0  0  0  0  0  0  0  0  0  0  0  0
    4.0668   -2.3479    0.0000 O   0  0  0  0  0  0  0  0  0  0  0  0
    4.7812   -1.1104    0.0000 N   0  0  0  0  0  0  0  0  0  0  0  0
    5.4957   -1.5229    0.0000 C   0  0  0  0  0  0  0  0  0  0  0  0
    6.2102   -1.1104    0.0000 C   0  0  0  0  0  0  0  0  0  0  0  0
    6.9246   -1.5229    0.0000 C   0  0  0  0  0  0  0  0  0  0  0  0
    6.9246   -2.3479    0.0000 C   0  0  0  0  0  0  0  0  0  0  0  0
    7.6391   -2.7604    0.0000 Br  0  0  0  0  0  0  0  0  0  0  0  0
    6.2102   -2.7604    0.0000 C   0  0  0  0  0  0  0  0  0  0  0  0
    5.4957   -2.3479    0.0000 C   0  0  0  0  0  0  0  0  0  0  0  0
   -4.2962   -2.1269    0.0000 C   0  0  0  0  0  0  0  0  0  0  0  0
   -5.1212   -2.1269    0.0000 C   0  0  0  0  0  0  0  0  0  0  0  0
  1  2  1  0  0  0  0
  2  3  4  0  0  0  0
  3  4  4  0  0  0  0
  4  5  4  0  0  0  0
  5  6  1  0  0  0  0
  6  7  1  0  0  0  0
  7  8  2  0  0  0  0
  7  9  1  0  0  0  0
  9 10  4  0  0  0  0
 10 11  4  0  0  0  0
 11 12  4  0  0  0  0
 12 13  4  0  0  0  0
 13 14  4  0  0  0  0
  9 14  4  0  0  0  0
 12 15  1  0  0  0  0
 15 16  1  0  0  0  0
 16 17  2  0  0  0  0
 16 18  1  0  0  0  0
 18 19  4  0  0  0  0
 19 20  4  0  0  0  0
 20 21  4  0  0  0  0
 21 22  4  0  0  0  0
 22 23  4  0  0  0  0
 18 23  4  0  0  0  0
 23 24  1  0  0  0  0
 15 24  1  0  0  0  0
 24 25  2  0  0  0  0
 21 26  1  0  0  0  0
 26 27  2  0  0  0  0
 26 28  1  0  0  0  0
 28 29  1  0  0  0  0
 29 30  4  0  0  0  0
 30 31  4  0  0  0  0
 31 32  4  0  0  0  0
 32 33  1  0  0  0  0
 32 34  4  0  0  0  0
 34 35  4  0  0  0  0
 29 35  4  0  0  0  0
  5 36  4  0  0  0  0
 36 37  4  0  0  0  0
  2 37  4  0  0  0  0
M  END

> <ChembankId>
1602083

> <SMILES>
Brc1ccc(NC(=O)c2ccc(cc2)N3C(=O)c4ccc(cc4C3=O)C(=O)Nc5ccc(Br)cc5)cc1

> <InChI>
1/C28H17Br2N3O4/c29-18-4-8-20(9-5-18)31-25(34)16-1-12-22(13-2-16)33-27(36)23-14-3-17(15-24(23)28(33)37)26(35)32-21-10-6-19(30)7-11-21/h1-15H,(H,31,34)(H,32,35)

$$$$
1915136
  Marvin  11101114192D          

 18 18  0  0  0  0            999 V2000
   -2.1935    1.1773    0.0000 C   0  0  0  0  0  0  0  0  0  0  0  0
   -1.7086    1.8448    0.0000 C   0  0  0  0  0  0  0  0  0  0  0  0
   -2.0442    2.5985    0.0000 N   0  0  0  0  0  0  0  0  0  0  0  0
   -2.8646    2.6847    0.0000 N   0  0  0  0  0  0  0  0  0  0  0  0
   -3.2002    3.4384    0.0000 C   0  0  0  0  0  0  0  0  0  0  0  0
   -4.0207    3.5246    0.0000 O   0  0  0  0  0  0  0  0  0  0  0  0
   -2.7153    4.1058    0.0000 N   0  0  0  0  0  0  0  0  0  0  0  0
   -0.8881    1.7586    0.0000 C   0  0  0  0  0  0  0  0  0  0  0  0
   -0.3361    2.3716    0.0000 C   0  0  0  0  0  0  0  0  0  0  0  0
    0.4176    2.0361    0.0000 C   0  0  0  0  0  0  0  0  0  0  0  0
    1.1321    2.4486    0.0000 C   0  0  0  0  0  0  0  0  0  0  0  0
    1.8465    2.0361    0.0000 N   0  0  0  0  0  0  0  0  0  0  0  0
    2.5610    2.4486    0.0000 C   0  0  0  0  0  0  0  0  0  0  0  0
    2.5610    3.2736    0.0000 O   0  0  0  0  0  0  0  0  0  0  0  0
    3.2755    2.0361    0.0000 C   0  0  0  0  0  0  0  0  0  0  0  0
    3.9899    2.4486    0.0000 Cl  0  0  0  0  0  0  0  0  0  0  0  0
    0.3314    1.2156    0.0000 C   0  0  0  0  0  0  0  0  0  0  0  0
   -0.4756    1.0441    0.0000 S   0  0  0  0  0  0  0  0  0  0  0  0
  1  2  1  0  0  0  0
  2  3  2  0  0  0  0
  3  4  1  0  0  0  0
  4  5  1  0  0  0  0
  5  6  2  0  0  0  0
  5  7  1  0  0  0  0
  2  8  1  0  0  0  0
  8  9  4  0  0  0  0
  9 10  4  0  0  0  0
 10 11  1  0  0  0  0
 11 12  1  0  0  0  0
 12 13  1  0  0  0  0
 13 14  2  0  0  0  0
 13 15  1  0  0  0  0
 15 16  1  0  0  0  0
 10 17  4  0  0  0  0
 17 18  4  0  0  0  0
  8 18  4  0  0  0  0
M  END

> <ChembankId>
1915136

> <SMILES>
C/C(=N\NC(=O)N)/c1cc(CNC(=O)CCl)cs1

> <InChI>
1/C10H13ClN4O2S/c1-6(14-15-10(12)17)8-2-7(5-18-8)4-13-9(16)3-11/h2,5H,3-4H2,1H3,(H,13,16)(H3,12,15,17)

$$$$
1167
  Marvin  11101114192D          

  9  8  0  0  0  0            999 V2000
    1.0461    1.4289    0.0000 N   0  0  0  0  0  0  0  0  0  0  0  0
    1.7605    1.8414    0.0000 C   0  0  0  0  0  0  0  0  0  0  0  0
    2.4750    1.4289    0.0000 C   0  0  0  0  0  0  0  0  0  0  0  0
    3.1895    1.8414    0.0000 C   0  0  0  0  0  0  0  0  0  0  0  0
    3.9039    1.4289    0.0000 C   0  0  0  0  0  0  0  0  0  0  0  0
    4.6184    1.8414    0.0000 C   0  0  0  0  0  0  0  0  0  0  0  0
    5.3329    1.4289    0.0000 C   0  0  0  0  0  0  0  0  0  0  0  0
    6.0474    1.8414    0.0000 O   0  0  0  0  0  0  0  0  0  0  0  0
    5.3329    0.6039    0.0000 O   0  0  0  0  0  0  0  0  0  0  0  0
  1  2  1  0  0  0  0
  2  3  1  0  0  0  0
  3  4  1  0  0  0  0
  4  5  1  0  0  0  0
  5  6  1  0  0  0  0
  6  7  1  0  0  0  0
  7  8  2  0  0  0  0
  7  9  1  0  0  0  0
M  END

> <ChembankId>
1167

> <SMILES>
NCCCCCC(=O)O

> <InChI>
1/C6H13NO2/c7-5-3-1-2-4-6(8)9/h1-5,7H2,(H,8,9)

$$$$
1443
  Marvin  11101114192D          

 20 21  0  0  0  0            999 V2000
   -2.8579   -1.6500    0.0000 C   0  0  0  0  0  0  0  0  0  0  0  0
   -2.1434   -1.2375    0.0000 N   0  0  0  0  0  0  0  0  0  0  0  0
   -2.1434   -0.4125    0.0000 C   0  0  0  0  0  0  0  0  0  0  0  0
   -1.4289   -1.6500    0.0000 C   0  0  0  0  0  0  0  0  0  0  0  0
   -0.7145   -1.2375    0.0000 C   0  0  0  0  0  0  0  0  0  0  0  0
    0.0000   -1.6500    0.0000 O   0  0  0  0  0  0  0  0  0  0  0  0
    0.7145   -1.2375    0.0000 C   0  0  0  0  0  0  0  0  0  0  0  0
    1.4289   -1.6500    0.0000 C   0  0  0  0  0  0  0  0  0  0  0  0
    2.1434   -1.2375    0.0000 C   0  0  0  0  0  0  0  0  0  0  0  0
    2.8579   -1.6500    0.0000 C   0  0  0  0  0  0  0  0  0  0  0  0
    2.8579   -2.4750    0.0000 C   0  0  0  0  0  0  0  0  0  0  0  0
    2.1434   -2.8875    0.0000 C   0  0  0  0  0  0  0  0  0  0  0  0
    1.4289   -2.4750    0.0000 C   0  0  0  0  0  0  0  0  0  0  0  0
    0.7145   -0.4125    0.0000 C   0  0  0  0  0  0  0  0  0  0  0  0
    0.0000   -0.0000    0.0000 C   0  0  0  0  0  0  0  0  0  0  0  0
    0.0000    0.8250    0.0000 C   0  0  0  0  0  0  0  0  0  0  0  0
    0.7145    1.2375    0.0000 C   0  0  0  0  0  0  0  0  0  0  0  0
    1.4289    0.8250    0.0000 C   0  0  0  0  0  0  0  0  0  0  0  0
    1.4289    0.0000    0.0000 C   0  0  0  0  0  0  0  0  0  0  0  0
    2.1434   -0.4125    0.0000 C   0  0  0  0  0  0  0  0  0  0  0  0
  1  2  1  0  0  0  0
  2  3  1  0  0  0  0
  2  4  1  0  0  0  0
  4  5  1  0  0  0  0
  5  6  1  0  0  0  0
  6  7  1  0  0  0  0
  7  8  1  0  0  0  0
  8  9  4  0  0  0  0
  9 10  4  0  0  0  0
 10 11  4  0  0  0  0
 11 12  4  0  0  0  0
 12 13  4  0  0  0  0
  8 13  4  0  0  0  0
  7 14  1  0  0  0  0
 14 15  4  0  0  0  0
 15 16  4  0  0  0  0
 16 17  4  0  0  0  0
 17 18  4  0  0  0  0
 18 19  4  0  0  0  0
 14 19  4  0  0  0  0
 19 20  1  0  0  0  0
M  END

> <ChembankId>
1443

> <SMILES>
CN(C)CCOC(c1ccccc1)c2ccccc2C

> <InChI>
1/C18H23NO/c1-15-9-7-8-12-17(15)18(20-14-13-19(2)3)16-10-5-4-6-11-16/h4-12,18H,13-14H2,1-3H3

$$$$
1569049
  Marvin  11101114192D          

 26 28  0  0  0  0            999 V2000
   -0.0000    1.6500    0.0000 C   0  0  0  0  0  0  0  0  0  0  0  0
    0.7145    1.2375    0.0000 O   0  0  0  0  0  0  0  0  0  0  0  0
    0.7145    0.4125    0.0000 C   0  0  0  0  0  0  0  0  0  0  0  0
    1.4289   -0.0000    0.0000 C   0  0  0  0  0  0  0  0  0  0  0  0
    1.4289   -0.8250    0.0000 C   0  0  0  0  0  0  0  0  0  0  0  0
    0.7145   -1.2375    0.0000 C   0  0  0  0  0  0  0  0  0  0  0  0
    0.0000   -0.8250    0.0000 C   0  0  0  0  0  0  0  0  0  0  0  0
    0.0000   -0.0000    0.0000 C   0  0  0  0  0  0  0  0  0  0  0  0
    0.7145   -2.0625    0.0000 C   0  0  0  0  0  0  0  0  0  0  0  0
    0.0000   -2.4750    0.0000 C   0  0  0  0  0  0  0  0  0  0  0  0
    0.0000   -3.3000    0.0000 C   0  0  0  0  0  0  0  0  0  0  0  0
    0.7145   -3.7125    0.0000 O   0  0  0  0  0  0  0  0  0  0  0  0
   -0.7145   -3.7125    0.0000 C   0  0  0  0  0  0  0  0  0  0  0  0
   -0.7145   -4.5375    0.0000 C   0  0  0  0  0  0  0  0  0  0  0  0
   -1.4289   -4.9500    0.0000 C   0  0  0  0  0  0  0  0  0  0  0  0
   -2.1434   -4.5375    0.0000 C   0  0  0  0  0  0  0  0  0  0  0  0
   -2.1434   -3.7125    0.0000 C   0  0  0  0  0  0  0  0  0  0  0  0
   -1.4289   -3.3000    0.0000 C   0  0  0  0  0  0  0  0  0  0  0  0
    1.4289   -2.4750    0.0000 N   0  0  0  0  0  0  0  0  0  0  0  0
    2.1434   -2.0625    0.0000 C   0  0  0  0  0  0  0  0  0  0  0  0
    2.1434   -1.2375    0.0000 C   0  0  0  0  0  0  0  0  0  0  0  0
    2.8579   -0.8250    0.0000 C   0  0  0  0  0  0  0  0  0  0  0  0
    3.5724   -1.2375    0.0000 C   0  0  0  0  0  0  0  0  0  0  0  0
    4.2868   -0.8250    0.0000 Br  0  0  0  0  0  0  0  0  0  0  0  0
    3.5724   -2.0625    0.0000 C   0  0  0  0  0  0  0  0  0  0  0  0
    2.8579   -2.4750    0.0000 C   0  0  0  0  0  0  0  0  0  0  0  0
  1  2  1  0  0  0  0
  2  3  1  0  0  0  0
  3  4  4  0  0  0  0
  4  5  4  0  0  0  0
  5  6  4  0  0  0  0
  6  7  4  0  0  0  0
  7  8  4  0  0  0  0
  3  8  4  0  0  0  0
  6  9  1  0  0  0  0
  9 10  1  0  0  0  0
 10 11  1  0  0  0  0
 11 12  2  0  0  0  0
 11 13  1  0  0  0  0
 13 14  4  0  0  0  0
 14 15  4  0  0  0  0
 15 16  4  0  0  0  0
 16 17  4  0  0  0  0
 17 18  4  0  0  0  0
 13 18  4  0  0  0  0
  9 19  1  0  0  0  0
 19 20  1  0  0  0  0
 20 21  4  0  0  0  0
 21 22  4  0  0  0  0
 22 23  4  0  0  0  0
 23 24  1  0  0  0  0
 23 25  4  0  0  0  0
 25 26  4  0  0  0  0
 20 26  4  0  0  0  0
M  END

> <ChembankId>
1569049

> <SMILES>
COc1ccc(cc1)C(CC(=O)c2ccccc2)Nc3ccc(Br)cc3

> <InChI>
1/C22H20BrNO2/c1-26-20-13-7-16(8-14-20)21(24-19-11-9-18(23)10-12-19)15-22(25)17-5-3-2-4-6-17/h2-14,21,24H,15H2,1H3

$$$$
1917264
  Marvin  11101114192D          

 28 30  0  0  0  0            999 V2000
   -1.4289   -3.3000    0.0000 O   0  5  0  0  0  0  0  0  0  0  0  0
   -2.1434   -3.7125    0.0000 N   0  3  0  0  0  0  0  0  0  0  0  0
   -2.8579   -3.3000    0.0000 O   0  0  0  0  0  0  0  0  0  0  0  0
   -2.1434   -4.5375    0.0000 C   0  0  0  0  0  0  0  0  0  0  0  0
   -1.4289   -4.9500    0.0000 C   0  0  0  0  0  0  0  0  0  0  0  0
   -1.4289   -5.7750    0.0000 C   0  0  0  0  0  0  0  0  0  0  0  0
   -2.1434   -6.1875    0.0000 C   0  0  0  0  0  0  0  0  0  0  0  0
   -2.8579   -5.7750    0.0000 C   0  0  0  0  0  0  0  0  0  0  0  0
   -2.8579   -4.9500    0.0000 C   0  0  0  0  0  0  0  0  0  0  0  0
   -3.5724   -4.5375    0.0000 N   0  0  0  0  0  0  0  0  0  0  0  0
   -4.2868   -4.9500    0.0000 C   0  0  0  0  0  0  0  0  0  0  0  0
   -4.2868   -5.7750    0.0000 O   0  0  0  0  0  0  0  0  0  0  0  0
   -5.0013   -4.5375    0.0000 C   0  0  0  0  0  0  0  0  0  0  0  0
   -5.7158   -4.9500    0.0000 C   0  0  0  0  0  0  0  0  0  0  0  0
   -6.4302   -4.5375    0.0000 C   0  0  0  0  0  0  0  0  0  0  0  0
   -6.4302   -3.7125    0.0000 C   0  0  0  0  0  0  0  0  0  0  0  0
   -5.7158   -3.3000    0.0000 C   0  0  0  0  0  0  0  0  0  0  0  0
   -5.0013   -3.7125    0.0000 C   0  0  0  0  0  0  0  0  0  0  0  0
   -4.2868   -3.3000    0.0000 Cl  0  0  0  0  0  0  0  0  0  0  0  0
   -7.1447   -4.9500    0.0000 S   0  0  0  0  0  0  0  0  0  0  0  0
   -7.5572   -4.2355    0.0000 O   0  0  0  0  0  0  0  0  0  0  0  0
   -6.7322   -5.6645    0.0000 O   0  0  0  0  0  0  0  0  0  0  0  0
   -7.8592   -5.3625    0.0000 N   0  0  0  0  0  0  0  0  0  0  0  0
   -7.8592   -6.1875    0.0000 C   0  0  0  0  0  0  0  0  0  0  0  0
   -8.5737   -6.6000    0.0000 C   0  0  0  0  0  0  0  0  0  0  0  0
   -9.2881   -6.1875    0.0000 C   0  0  0  0  0  0  0  0  0  0  0  0
   -9.2881   -5.3625    0.0000 C   0  0  0  0  0  0  0  0  0  0  0  0
   -8.5737   -4.9500    0.0000 C   0  0  0  0  0  0  0  0  0  0  0  0
  1  2  1  0  0  0  0
  2  3  2  0  0  0  0
  2  4  1  0  0  0  0
  4  5  4  0  0  0  0
  5  6  4  0  0  0  0
  6  7  4  0  0  0  0
  7  8  4  0  0  0  0
  8  9  4  0  0  0  0
  4  9  4  0  0  0  0
  9 10  1  0  0  0  0
 10 11  1  0  0  0  0
 11 12  2  0  0  0  0
 11 13  1  0  0  0  0
 13 14  4  0  0  0  0
 14 15  4  0  0  0  0
 15 16  4  0  0  0  0
 16 17  4  0  0  0  0
 17 18  4  0  0  0  0
 13 18  4  0  0  0  0
 18 19  1  0  0  0  0
 15 20  1  0  0  0  0
 20 21  2  0  0  0  0
 20 22  2  0  0  0  0
 20 23  1  0  0  0  0
 23 24  1  0  0  0  0
 24 25  1  0  0  0  0
 25 26  1  0  0  0  0
 26 27  1  0  0  0  0
 27 28  1  0  0  0  0
 23 28  1  0  0  0  0
M  CHG  2   1  -1   2   1
M  END

> <ChembankId>
1917264

> <SMILES>
[O-][N+](=O)c1ccccc1NC(=O)c2cc(ccc2Cl)S(=O)(=O)N3CCCCC3

> <InChI>
1/C18H18ClN3O5S/c19-15-9-8-13(28(26,27)21-10-4-1-5-11-21)12-14(15)18(23)20-16-6-2-3-7-17(16)22(24)25/h2-3,6-9,12H,1,4-5,10-11H2,(H,20,23)

$$$$
1369355
  Marvin  11101114192D          

 39 44  0  0  0  0            999 V2000
   10.0026   -7.4250    0.0000 C   0  0  0  0  0  0  0  0  0  0  0  0
   10.0026   -6.6000    0.0000 C   0  0  0  0  0  0  0  0  0  0  0  0
    9.2881   -6.1875    0.0000 C   0  0  0  0  0  0  0  0  0  0  0  0
    9.2881   -5.3625    0.0000 C   0  0  0  0  0  0  0  0  0  0  0  0
    8.5737   -4.9500    0.0000 O   0  0  0  0  0  0  0  0  0  0  0  0
   10.0026   -4.9500    0.0000 O   0  0  0  0  0  0  0  0  0  0  0  0
   10.7171   -5.3625    0.0000 C   0  0  0  0  0  0  0  0  0  0  0  0
   11.4315   -4.9500    0.0000 C   0  0  0  0  0  0  0  0  0  0  0  0
   12.1460   -5.3625    0.0000 C   0  0  0  0  0  0  0  0  0  0  0  0
   12.8605   -4.9500    0.0000 O   0  0  0  0  0  0  0  0  0  0  0  0
   12.8605   -4.1250    0.0000 C   0  0  0  0  0  0  0  0  0  0  0  0
   12.1460   -3.7125    0.0000 O   0  0  0  0  0  0  0  0  0  0  0  0
   13.5749   -3.7125    0.0000 C   0  0  0  0  0  0  0  0  0  0  0  0
   13.5749   -2.8875    0.0000 O   0  0  0  0  0  0  0  0  0  0  0  0
   14.2894   -2.4750    0.0000 C   0  0  0  0  0  0  0  0  0  0  0  0
   14.2894   -1.6500    0.0000 C   0  0  0  0  0  0  0  0  0  0  0  0
   15.0039   -1.2375    0.0000 C   0  0  0  0  0  0  0  0  0  0  0  0
   15.7184   -1.6500    0.0000 C   0  0  0  0  0  0  0  0  0  0  0  0
   16.4328   -1.2375    0.0000 C   0  0  0  0  0  0  0  0  0  0  0  0
   16.4328   -0.4125    0.0000 O   0  0  0  0  0  0  0  0  0  0  0  0
   17.1473   -1.6500    0.0000 C   0  0  0  0  0  0  0  0  0  0  0  0
   17.1473   -2.4750    0.0000 C   0  0  0  0  0  0  0  0  0  0  0  0
   17.8618   -2.8875    0.0000 C   0  0  0  0  0  0  0  0  0  0  0  0
   16.4328   -2.8875    0.0000 O   0  0  0  0  0  0  0  0  0  0  0  0
   15.7184   -2.4750    0.0000 C   0  0  0  0  0  0  0  0  0  0  0  0
   15.0039   -2.8875    0.0000 C   0  0  0  0  0  0  0  0  0  0  0  0
   17.8618   -1.2375    0.0000 C   0  0  0  0  0  0  0  0  0  0  0  0
   17.8618   -0.4125    0.0000 C   0  0  0  0  0  0  0  0  0  0  0  0
   18.5762    0.0000    0.0000 C   0  0  0  0  0  0  0  0  0  0  0  0
   19.2907   -0.4125    0.0000 C   0  0  0  0  0  0  0  0  0  0  0  0
   20.0052    0.0000    0.0000 O   0  0  0  0  0  0  0  0  0  0  0  0
   20.7197   -0.4125    0.0000 C   0  0  0  0  0  0  0  0  0  0  0  0
   20.7197   -1.2375    0.0000 C   0  0  0  0  0  0  0  0  0  0  0  0
   20.0052   -1.6500    0.0000 O   0  0  0  0  0  0  0  0  0  0  0  0
   19.2907   -1.2375    0.0000 C   0  0  0  0  0  0  0  0  0  0  0  0
   18.5762   -1.6500    0.0000 C   0  0  0  0  0  0  0  0  0  0  0  0
   12.1460   -6.1875    0.0000 C   0  0  0  0  0  0  0  0  0  0  0  0
   11.4315   -6.6000    0.0000 C   0  0  0  0  0  0  0  0  0  0  0  0
   10.7171   -6.1875    0.0000 C   0  0  0  0  0  0  0  0  0  0  0  0
  1  2  1  0  0  0  0
  2  3  4  0  0  0  0
  3  4  4  0  0  0  0
  4  5  2  0  0  0  0
  4  6  4  0  0  0  0
  6  7  4  0  0  0  0
  7  8  4  0  0  0  0
  8  9  4  0  0  0  0
  9 10  1  0  0  0  0
 10 11  1  0  0  0  0
 11 12  2  0  0  0  0
 11 13  1  0  0  0  0
 13 14  1  0  0  0  0
 14 15  1  0  0  0  0
 15 16  4  0  0  0  0
 16 17  4  0  0  0  0
 17 18  4  0  0  0  0
 18 19  4  0  0  0  0
 19 20  2  0  0  0  0
 19 21  4  0  0  0  0
 21 22  4  0  0  0  0
 22 23  1  0  0  0  0
 22 24  4  0  0  0  0
 24 25  4  0  0  0  0
 18 25  4  0  0  0  0
 25 26  4  0  0  0  0
 15 26  4  0  0  0  0
 21 27  1  0  0  0  0
 27 28  4  0  0  0  0
 28 29  4  0  0  0  0
 29 30  4  0  0  0  0
 30 31  1  0  0  0  0
 31 32  1  0  0  0  0
 32 33  1  0  0  0  0
 33 34  1  0  0  0  0
 34 35  1  0  0  0  0
 30 35  4  0  0  0  0
 35 36  4  0  0  0  0
 27 36  4  0  0  0  0
  9 37  4  0  0  0  0
 37 38  4  0  0  0  0
 38 39  4  0  0  0  0
  2 39  4  0  0  0  0
  7 39  4  0  0  0  0
M  END

> <ChembankId>
1369355

> <SMILES>
Cc1cc(=O)oc2cc(OC(=O)COc3ccc4c(=O)c(c(C)oc4c3)c5ccc6OCCOc6c5)ccc12

> <InChI>
1/C30H22O9/c1-16-11-27(31)39-24-14-20(5-6-21(16)24)38-28(32)15-36-19-4-7-22-25(13-19)37-17(2)29(30(22)33)18-3-8-23-26(12-18)35-10-9-34-23/h3-8,11-14H,9-10,15H2,1-2H3

$$$$
1917785
  Marvin  11101114192D          

 32 35  0  0  0  0            999 V2000
   -0.7145   -0.4125    0.0000 O   0  0  0  0  0  0  0  0  0  0  0  0
   -1.4289   -0.0000    0.0000 C   0  0  0  0  0  0  0  0  0  0  0  0
   -2.1434   -0.4125    0.0000 N   0  0  0  0  0  0  0  0  0  0  0  0
   -2.1434   -1.2375    0.0000 C   0  0  0  0  0  0  0  0  0  0  0  0
   -1.4289   -1.6500    0.0000 C   0  0  0  0  0  0  0  0  0  0  0  0
   -1.4289   -2.4750    0.0000 C   0  0  0  0  0  0  0  0  0  0  0  0
   -2.1434   -2.8875    0.0000 C   0  0  0  0  0  0  0  0  0  0  0  0
   -2.1434   -3.7125    0.0000 C   0  0  0  0  0  0  0  0  0  0  0  0
   -2.8579   -4.1250    0.0000 C   0  0  0  0  0  0  0  0  0  0  0  0
   -2.8579   -4.9500    0.0000 C   0  0  0  0  0  0  0  0  0  0  0  0
   -2.1434   -5.3625    0.0000 O   0  0  0  0  0  0  0  0  0  0  0  0
   -3.5724   -5.3625    0.0000 C   0  0  0  0  0  0  0  0  0  0  0  0
   -3.5724   -6.1875    0.0000 C   0  0  0  0  0  0  0  0  0  0  0  0
   -4.2868   -6.6000    0.0000 C   0  0  0  0  0  0  0  0  0  0  0  0
   -5.0013   -6.1875    0.0000 C   0  0  0  0  0  0  0  0  0  0  0  0
   -5.0013   -5.3625    0.0000 C   0  0  0  0  0  0  0  0  0  0  0  0
   -4.2868   -4.9500    0.0000 C   0  0  0  0  0  0  0  0  0  0  0  0
   -2.8579   -2.4750    0.0000 C   0  0  0  0  0  0  0  0  0  0  0  0
   -2.8579   -1.6500    0.0000 C   0  0  0  0  0  0  0  0  0  0  0  0
   -1.4289    0.8250    0.0000 C   0  0  0  0  0  0  0  0  0  0  0  0
   -0.7145    1.2375    0.0000 C   0  0  0  0  0  0  0  0  0  0  0  0
   -0.7145    2.0625    0.0000 C   0  0  0  0  0  0  0  0  0  0  0  0
    0.0000    2.4750    0.0000 C   0  0  0  0  0  0  0  0  0  0  0  0
    0.7145    2.0625    0.0000 C   0  0  0  0  0  0  0  0  0  0  0  0
    0.7145    1.2375    0.0000 C   0  0  0  0  0  0  0  0  0  0  0  0
    0.0000    0.8250    0.0000 C   0  0  0  0  0  0  0  0  0  0  0  0
   -2.1434    1.2375    0.0000 C   0  0  0  0  0  0  0  0  0  0  0  0
   -2.8579    0.8250    0.0000 C   0  0  0  0  0  0  0  0  0  0  0  0
   -3.5724    1.2375    0.0000 C   0  0  0  0  0  0  0  0  0  0  0  0
   -3.5724    2.0625    0.0000 C   0  0  0  0  0  0  0  0  0  0  0  0
   -2.8579    2.4750    0.0000 C   0  0  0  0  0  0  0  0  0  0  0  0
   -2.1434    2.0625    0.0000 C   0  0  0  0  0  0  0  0  0  0  0  0
  1  2  2  0  0  0  0
  2  3  1  0  0  0  0
  3  4  1  0  0  0  0
  4  5  4  0  0  0  0
  5  6  4  0  0  0  0
  6  7  4  0  0  0  0
  7  8  1  0  0  0  0
  8  9  2  0  0  0  0
  9 10  1  0  0  0  0
 10 11  2  0  0  0  0
 10 12  1  0  0  0  0
 12 13  4  0  0  0  0
 13 14  4  0  0  0  0
 14 15  4  0  0  0  0
 15 16  4  0  0  0  0
 16 17  4  0  0  0  0
 12 17  4  0  0  0  0
  7 18  4  0  0  0  0
 18 19  4  0  0  0  0
  4 19  4  0  0  0  0
  2 20  1  0  0  0  0
 20 21  1  0  0  0  0
 21 22  4  0  0  0  0
 22 23  4  0  0  0  0
 23 24  4  0  0  0  0
 24 25  4  0  0  0  0
 25 26  4  0  0  0  0
 21 26  4  0  0  0  0
 20 27  1  0  0  0  0
 27 28  4  0  0  0  0
 28 29  4  0  0  0  0
 29 30  4  0  0  0  0
 30 31  4  0  0  0  0
 31 32  4  0  0  0  0
 27 32  4  0  0  0  0
M  END

> <ChembankId>
1917785

> <SMILES>
O=C(Nc1ccc(/C=C/C(=O)c2ccccc2)cc1)C(c3ccccc3)c4ccccc4

> <InChI>
1/C29H23NO2/c31-27(23-10-4-1-5-11-23)21-18-22-16-19-26(20-17-22)30-29(32)28(24-12-6-2-7-13-24)25-14-8-3-9-15-25/h1-21,28H,(H,30,32)

$$$$
1267101
  Marvin  11101114192D          

 30 33  0  0  0  0            999 V2000
   -2.1434   -2.8875    0.0000 C   0  0  0  0  0  0  0  0  0  0  0  0
   -1.4289   -2.4750    0.0000 C   0  0  0  0  0  0  0  0  0  0  0  0
   -0.7145   -2.8875    0.0000 O   0  0  0  0  0  0  0  0  0  0  0  0
    0.0000   -2.4750    0.0000 C   0  0  0  0  0  0  0  0  0  0  0  0
    0.0000   -1.6500    0.0000 O   0  0  0  0  0  0  0  0  0  0  0  0
    0.7145   -2.8875    0.0000 N   0  0  0  0  0  0  0  0  0  0  0  0
    1.4289   -2.4750    0.0000 C   0  0  0  0  0  0  0  0  0  0  0  0
    1.4289   -1.6500    0.0000 C   0  0  0  0  0  0  0  0  0  0  0  0
    2.1434   -1.2375    0.0000 C   0  0  0  0  0  0  0  0  0  0  0  0
    2.8579   -1.6500    0.0000 C   0  0  0  0  0  0  0  0  0  0  0  0
    3.5724   -1.2375    0.0000 S   0  0  0  0  0  0  0  0  0  0  0  0
    4.2868   -1.6500    0.0000 C   0  0  0  0  0  0  0  0  0  0  0  0
    5.0013   -1.2375    0.0000 C   0  0  0  0  0  0  0  0  0  0  0  0
    5.7158   -1.6500    0.0000 C   0  0  0  0  0  0  0  0  0  0  0  0
    5.7158   -2.4750    0.0000 C   0  0  0  0  0  0  0  0  0  0  0  0
    5.0013   -2.8875    0.0000 C   0  0  0  0  0  0  0  0  0  0  0  0
    4.2868   -2.4750    0.0000 C   0  0  0  0  0  0  0  0  0  0  0  0
    3.5724   -2.8875    0.0000 N   0  0  0  0  0  0  0  0  0  0  0  0
    3.5724   -3.7125    0.0000 C   0  0  0  0  0  0  0  0  0  0  0  0
    4.2868   -4.1250    0.0000 O   0  0  0  0  0  0  0  0  0  0  0  0
    2.8579   -4.1250    0.0000 C   0  0  0  0  0  0  0  0  0  0  0  0
    2.8579   -4.9500    0.0000 C   0  0  0  0  0  0  0  0  0  0  0  0
    3.5724   -5.3625    0.0000 N   0  0  0  0  0  0  0  0  0  0  0  0
    4.2868   -4.9500    0.0000 C   0  0  0  0  0  0  0  0  0  0  0  0
    5.0013   -5.3625    0.0000 C   0  0  0  0  0  0  0  0  0  0  0  0
    5.0013   -6.1875    0.0000 O   0  0  0  0  0  0  0  0  0  0  0  0
    4.2868   -6.6000    0.0000 C   0  0  0  0  0  0  0  0  0  0  0  0
    3.5724   -6.1875    0.0000 C   0  0  0  0  0  0  0  0  0  0  0  0
    2.8579   -2.4750    0.0000 C   0  0  0  0  0  0  0  0  0  0  0  0
    2.1434   -2.8875    0.0000 C   0  0  0  0  0  0  0  0  0  0  0  0
  1  2  1  0  0  0  0
  2  3  1  0  0  0  0
  3  4  1  0  0  0  0
  4  5  2  0  0  0  0
  4  6  1  0  0  0  0
  6  7  1  0  0  0  0
  7  8  4  0  0  0  0
  8  9  4  0  0  0  0
  9 10  4  0  0  0  0
 10 11  1  0  0  0  0
 11 12  1  0  0  0  0
 12 13  4  0  0  0  0
 13 14  4  0  0  0  0
 14 15  4  0  0  0  0
 15 16  4  0  0  0  0
 16 17  4  0  0  0  0
 12 17  4  0  0  0  0
 17 18  1  0  0  0  0
 18 19  1  0  0  0  0
 19 20  2  0  0  0  0
 19 21  1  0  0  0  0
 21 22  1  0  0  0  0
 22 23  1  0  0  0  0
 23 24  1  0  0  0  0
 24 25  1  0  0  0  0
 25 26  1  0  0  0  0
 26 27  1  0  0  0  0
 27 28  1  0  0  0  0
 23 28  1  0  0  0  0
 18 29  1  0  0  0  0
 10 29  4  0  0  0  0
 29 30  4  0  0  0  0
  7 30  4  0  0  0  0
M  END

> <ChembankId>
1267101

> <SMILES>
CCOC(=O)Nc1ccc2Sc3ccccc3N(C(=O)CCN4CCOCC4)c2c1

> <InChI>
1/C22H25N3O4S/c1-2-29-22(27)23-16-7-8-20-18(15-16)25(17-5-3-4-6-19(17)30-20)21(26)9-10-24-11-13-28-14-12-24/h3-8,15H,2,9-14H2,1H3,(H,23,27)

$$$$
1918471
  Marvin  11101114192D          

 24 25  0  0  0  0            999 V2000
   -0.0000   -4.9500    0.0000 Br  0  0  0  0  0  0  0  0  0  0  0  0
   -0.0000   -4.1250    0.0000 C   0  0  0  0  0  0  0  0  0  0  0  0
   -0.7145   -3.7125    0.0000 C   0  0  0  0  0  0  0  0  0  0  0  0
   -0.7145   -2.8875    0.0000 C   0  0  0  0  0  0  0  0  0  0  0  0
   -1.4289   -2.4750    0.0000 Br  0  0  0  0  0  0  0  0  0  0  0  0
   -0.0000   -2.4750    0.0000 C   0  0  0  0  0  0  0  0  0  0  0  0
   -0.0000   -1.6500    0.0000 O   0  0  0  0  0  0  0  0  0  0  0  0
    0.7145   -1.2375    0.0000 C   0  0  0  0  0  0  0  0  0  0  0  0
    1.4289   -1.6500    0.0000 O   0  0  0  0  0  0  0  0  0  0  0  0
    0.7145   -0.4125    0.0000 C   0  0  0  0  0  0  0  0  0  0  0  0
   -0.0000    0.0000    0.0000 C   0  0  0  0  0  0  0  0  0  0  0  0
    0.0000    0.8250    0.0000 C   0  0  0  0  0  0  0  0  0  0  0  0
    0.7145    1.2375    0.0000 C   0  0  0  0  0  0  0  0  0  0  0  0
    1.4289    0.8250    0.0000 C   0  0  0  0  0  0  0  0  0  0  0  0
    1.4289    0.0000    0.0000 C   0  0  0  0  0  0  0  0  0  0  0  0
    2.1434   -0.4125    0.0000 C   0  0  0  0  0  0  0  0  0  0  0  0
    2.1434   -1.2375    0.0000 O   0  0  0  0  0  0  0  0  0  0  0  0
    2.8579    0.0000    0.0000 O   0  0  0  0  0  0  0  0  0  0  0  0
    3.5724   -0.4125    0.0000 C   0  0  0  0  0  0  0  0  0  0  0  0
    4.2868    0.0000    0.0000 C   0  0  0  0  0  0  0  0  0  0  0  0
    5.0013    0.4125    0.0000 C   0  0  0  0  0  0  0  0  0  0  0  0
    0.7145   -2.8875    0.0000 C   0  0  0  0  0  0  0  0  0  0  0  0
    1.4289   -2.4750    0.0000 Br  0  0  0  0  0  0  0  0  0  0  0  0
    0.7145   -3.7125    0.0000 C   0  0  0  0  0  0  0  0  0  0  0  0
  1  2  1  0  0  0  0
  2  3  4  0  0  0  0
  3  4  4  0  0  0  0
  4  5  1  0  0  0  0
  4  6  4  0  0  0  0
  6  7  1  0  0  0  0
  7  8  1  0  0  0  0
  8  9  2  0  0  0  0
  8 10  1  0  0  0  0
 10 11  4  0  0  0  0
 11 12  4  0  0  0  0
 12 13  4  0  0  0  0
 13 14  4  0  0  0  0
 14 15  4  0  0  0  0
 10 15  4  0  0  0  0
 15 16  1  0  0  0  0
 16 17  2  0  0  0  0
 16 18  1  0  0  0  0
 18 19  1  0  0  0  0
 19 20  1  0  0  0  0
 20 21  3  0  0  0  0
  6 22  4  0  0  0  0
 22 23  1  0  0  0  0
 22 24  4  0  0  0  0
  2 24  4  0  0  0  0
M  END

> <ChembankId>
1918471

> <SMILES>
Brc1cc(Br)c(OC(=O)c2ccccc2C(=O)OCC#C)c(Br)c1

> <InChI>
1/C17H9Br3O4/c1-2-7-23-16(21)11-5-3-4-6-12(11)17(22)24-15-13(19)8-10(18)9-14(15)20/h1,3-6,8-9H,7H2

$$$$
1918598
  Marvin  11101114192D          

 18 19  0  0  0  0            999 V2000
    0.7145   -1.2375    0.0000 C   0  0  0  0  0  0  0  0  0  0  0  0
    0.0000   -1.6500    0.0000 O   0  0  0  0  0  0  0  0  0  0  0  0
    0.0000   -2.4750    0.0000 C   0  0  0  0  0  0  0  0  0  0  0  0
    0.7145   -2.8875    0.0000 C   0  0  0  0  0  0  0  0  0  0  0  0
    0.7145   -3.7125    0.0000 C   0  0  0  0  0  0  0  0  0  0  0  0
    0.0000   -4.1250    0.0000 C   0  0  0  0  0  0  0  0  0  0  0  0
   -0.7145   -3.7125    0.0000 C   0  0  0  0  0  0  0  0  0  0  0  0
   -1.4289   -4.1250    0.0000 C   0  0  0  0  0  0  0  0  0  0  0  0
   -1.4289   -4.9500    0.0000 N   0  0  0  0  0  0  0  0  0  0  0  0
   -0.7145   -5.3625    0.0000 N   0  0  0  0  0  0  0  0  0  0  0  0
   -0.7145   -6.1875    0.0000 C   0  0  0  0  0  0  0  0  0  0  0  0
    0.0000   -6.6000    0.0000 C   0  0  0  0  0  0  0  0  0  0  0  0
    0.0000   -7.4250    0.0000 C   0  0  0  0  0  0  0  0  0  0  0  0
   -0.7145   -7.8375    0.0000 C   0  0  0  0  0  0  0  0  0  0  0  0
   -1.4289   -7.4250    0.0000 C   0  0  0  0  0  0  0  0  0  0  0  0
   -1.4289   -6.6000    0.0000 N   0  0  0  0  0  0  0  0  0  0  0  0
   -0.7145   -2.8875    0.0000 C   0  0  0  0  0  0  0  0  0  0  0  0
   -1.4289   -2.4750    0.0000 O   0  0  0  0  0  0  0  0  0  0  0  0
  1  2  1  0  0  0  0
  2  3  1  0  0  0  0
  3  4  4  0  0  0  0
  4  5  4  0  0  0  0
  5  6  4  0  0  0  0
  6  7  4  0  0  0  0
  7  8  1  0  0  0  0
  8  9  2  0  0  0  0
  9 10  1  0  0  0  0
 10 11  1  0  0  0  0
 11 12  4  0  0  0  0
 12 13  4  0  0  0  0
 13 14  4  0  0  0  0
 14 15  4  0  0  0  0
 15 16  4  0  0  0  0
 11 16  4  0  0  0  0
  7 17  4  0  0  0  0
  3 17  4  0  0  0  0
 17 18  1  0  0  0  0
M  END

> <ChembankId>
1918598

> <SMILES>
COc1cccc(/C=N\Nc2ccccn2)c1O

> <InChI>
1/C13H13N3O2/c1-18-11-6-4-5-10(13(11)17)9-15-16-12-7-2-3-8-14-12/h2-9,17H,1H3,(H,14,16)

$$$$
1918768
  Marvin  11101114192D          

 19 21  0  0  0  0            999 V2000
   -2.3441   -2.8361    0.0000 Cl  0  0  0  0  0  0  0  0  0  0  0  0
   -1.5371   -2.6646    0.0000 C   0  0  0  0  0  0  0  0  0  0  0  0
   -1.2822   -1.8800    0.0000 C   0  0  0  0  0  0  0  0  0  0  0  0
   -0.4752   -1.7084    0.0000 C   0  0  0  0  0  0  0  0  0  0  0  0
    0.0768   -2.3215    0.0000 C   0  0  0  0  0  0  0  0  0  0  0  0
    0.8838   -2.1500    0.0000 C   0  0  0  0  0  0  0  0  0  0  0  0
    1.4358   -2.7631    0.0000 O   0  0  0  0  0  0  0  0  0  0  0  0
    1.1387   -1.3654    0.0000 N   0  0  0  0  0  0  0  0  0  0  0  0
    0.6538   -0.6979    0.0000 N   0  0  0  0  0  0  0  0  0  0  0  0
    1.1387   -0.0305    0.0000 N   0  0  0  0  0  0  0  0  0  0  0  0
    1.9233   -0.2854    0.0000 C   0  0  0  0  0  0  0  0  0  0  0  0
    2.6378    0.1271    0.0000 C   0  0  0  0  0  0  0  0  0  0  0  0
    3.3523   -0.2854    0.0000 C   0  0  0  0  0  0  0  0  0  0  0  0
    3.3523   -1.1104    0.0000 C   0  0  0  0  0  0  0  0  0  0  0  0
    2.6378   -1.5229    0.0000 C   0  0  0  0  0  0  0  0  0  0  0  0
    1.9233   -1.1104    0.0000 C   0  0  0  0  0  0  0  0  0  0  0  0
   -0.1781   -3.1062    0.0000 C   0  0  0  0  0  0  0  0  0  0  0  0
    0.3739   -3.7192    0.0000 Cl  0  0  0  0  0  0  0  0  0  0  0  0
   -0.9851   -3.2777    0.0000 C   0  0  0  0  0  0  0  0  0  0  0  0
  1  2  1  0  0  0  0
  2  3  4  0  0  0  0
  3  4  4  0  0  0  0
  4  5  4  0  0  0  0
  5  6  1  0  0  0  0
  6  7  2  0  0  0  0
  6  8  1  0  0  0  0
  8  9  4  0  0  0  0
  9 10  4  0  0  0  0
 10 11  4  0  0  0  0
 11 12  4  0  0  0  0
 12 13  4  0  0  0  0
 13 14  4  0  0  0  0
 14 15  4  0  0  0  0
 15 16  4  0  0  0  0
  8 16  4  0  0  0  0
 11 16  4  0  0  0  0
  5 17  4  0  0  0  0
 17 18  1  0  0  0  0
 17 19  4  0  0  0  0
  2 19  4  0  0  0  0
M  END

> <ChembankId>
1918768

> <SMILES>
Clc1ccc(C(=O)n2nnc3ccccc23)c(Cl)c1

> <InChI>
1/C13H7Cl2N3O/c14-8-5-6-9(10(15)7-8)13(19)18-12-4-2-1-3-11(12)16-17-18/h1-7H

$$$$
1918866
  Marvin  11101114192D          

 24 26  0  0  0  0            999 V2000
   -2.6462   -4.9848    0.0000 O   0  5  0  0  0  0  0  0  0  0  0  0
   -3.0587   -4.2703    0.0000 N   0  3  0  0  0  0  0  0  0  0  0  0
   -3.8837   -4.2703    0.0000 O   0  0  0  0  0  0  0  0  0  0  0  0
   -2.6462   -3.5558    0.0000 C   0  0  0  0  0  0  0  0  0  0  0  0
   -3.0587   -2.8414    0.0000 C   0  0  0  0  0  0  0  0  0  0  0  0
   -2.6462   -2.1269    0.0000 C   0  0  0  0  0  0  0  0  0  0  0  0
   -1.8212   -2.1269    0.0000 C   0  0  0  0  0  0  0  0  0  0  0  0
   -1.4087   -1.4124    0.0000 O   0  0  0  0  0  0  0  0  0  0  0  0
   -0.5837   -1.4124    0.0000 C   0  0  0  0  0  0  0  0  0  0  0  0
   -0.1712   -2.1269    0.0000 O   0  0  0  0  0  0  0  0  0  0  0  0
   -0.1712   -0.6979    0.0000 C   0  0  0  0  0  0  0  0  0  0  0  0
    0.6538   -0.6979    0.0000 N   0  0  0  0  0  0  0  0  0  0  0  0
    1.1387   -0.0305    0.0000 C   0  0  0  0  0  0  0  0  0  0  0  0
    0.8838    0.7541    0.0000 O   0  0  0  0  0  0  0  0  0  0  0  0
    1.9233   -0.2854    0.0000 C   0  0  0  0  0  0  0  0  0  0  0  0
    2.6378    0.1271    0.0000 C   0  0  0  0  0  0  0  0  0  0  0  0
    3.3523   -0.2854    0.0000 C   0  0  0  0  0  0  0  0  0  0  0  0
    3.3523   -1.1104    0.0000 C   0  0  0  0  0  0  0  0  0  0  0  0
    2.6378   -1.5229    0.0000 C   0  0  0  0  0  0  0  0  0  0  0  0
    1.9233   -1.1104    0.0000 C   0  0  0  0  0  0  0  0  0  0  0  0
    1.1387   -1.3654    0.0000 C   0  0  0  0  0  0  0  0  0  0  0  0
    0.8838   -2.1500    0.0000 O   0  0  0  0  0  0  0  0  0  0  0  0
   -1.4087   -2.8414    0.0000 C   0  0  0  0  0  0  0  0  0  0  0  0
   -1.8212   -3.5558    0.0000 C   0  0  0  0  0  0  0  0  0  0  0  0
  1  2  1  0  0  0  0
  2  3  2  0  0  0  0
  2  4  1  0  0  0  0
  4  5  4  0  0  0  0
  5  6  4  0  0  0  0
  6  7  4  0  0  0  0
  7  8  1  0  0  0  0
  8  9  1  0  0  0  0
  9 10  2  0  0  0  0
  9 11  1  0  0  0  0
 11 12  1  0  0  0  0
 12 13  1  0  0  0  0
 13 14  2  0  0  0  0
 13 15  1  0  0  0  0
 15 16  4  0  0  0  0
 16 17  4  0  0  0  0
 17 18  4  0  0  0  0
 18 19  4  0  0  0  0
 19 20  4  0  0  0  0
 15 20  4  0  0  0  0
 20 21  1  0  0  0  0
 12 21  1  0  0  0  0
 21 22  2  0  0  0  0
  7 23  4  0  0  0  0
 23 24  4  0  0  0  0
  4 24  4  0  0  0  0
M  CHG  2   1  -1   2   1
M  END

> <ChembankId>
1918866

> <SMILES>
[O-][N+](=O)c1ccc(OC(=O)CN2C(=O)c3ccccc3C2=O)cc1

> <InChI>
1/C16H10N2O6/c19-14(24-11-7-5-10(6-8-11)18(22)23)9-17-15(20)12-3-1-2-4-13(12)16(17)21/h1-8H,9H2

$$$$
1919035
  Marvin  11101114192D          

 31 33  0  0  0  0            999 V2000
    0.0000   -2.4750    0.0000 O   0  5  0  0  0  0  0  0  0  0  0  0
    0.7145   -2.8875    0.0000 N   0  3  0  0  0  0  0  0  0  0  0  0
    1.4289   -2.4750    0.0000 O   0  0  0  0  0  0  0  0  0  0  0  0
    0.7145   -3.7125    0.0000 C   0  0  0  0  0  0  0  0  0  0  0  0
    1.4289   -4.1250    0.0000 C   0  0  0  0  0  0  0  0  0  0  0  0
    1.4289   -4.9500    0.0000 C   0  0  0  0  0  0  0  0  0  0  0  0
    0.7145   -5.3625    0.0000 C   0  0  0  0  0  0  0  0  0  0  0  0
    0.0000   -4.9500    0.0000 C   0  0  0  0  0  0  0  0  0  0  0  0
    0.0000   -4.1250    0.0000 C   0  0  0  0  0  0  0  0  0  0  0  0
    0.7145   -6.1875    0.0000 C   0  0  0  0  0  0  0  0  0  0  0  0
    1.4289   -6.6000    0.0000 O   0  0  0  0  0  0  0  0  0  0  0  0
   -0.0000   -6.6000    0.0000 O   0  0  0  0  0  0  0  0  0  0  0  0
   -0.0000   -7.4250    0.0000 C   0  0  0  0  0  0  0  0  0  0  0  0
    0.7145   -7.8375    0.0000 C   0  0  0  0  0  0  0  0  0  0  0  0
    1.4289   -7.4250    0.0000 Cl  0  0  0  0  0  0  0  0  0  0  0  0
    0.7145   -8.6625    0.0000 C   0  0  0  0  0  0  0  0  0  0  0  0
   -0.0000   -9.0750    0.0000 C   0  0  0  0  0  0  0  0  0  0  0  0
   -0.0000   -9.9000    0.0000 Cl  0  0  0  0  0  0  0  0  0  0  0  0
   -0.7145   -8.6625    0.0000 C   0  0  0  0  0  0  0  0  0  0  0  0
   -1.4289   -9.0750    0.0000 Cl  0  0  0  0  0  0  0  0  0  0  0  0
   -0.7145   -7.8375    0.0000 C   0  0  0  0  0  0  0  0  0  0  0  0
   -1.4289   -7.4250    0.0000 C   0  0  0  0  0  0  0  0  0  0  0  0
   -1.4289   -6.6000    0.0000 N   0  0  0  0  0  0  0  0  0  0  0  0
   -2.1434   -6.1875    0.0000 C   0  0  0  0  0  0  0  0  0  0  0  0
   -2.1434   -5.3625    0.0000 O   0  0  0  0  0  0  0  0  0  0  0  0
   -2.8579   -6.6000    0.0000 C   0  0  0  0  0  0  0  0  0  0  0  0
   -2.8579   -7.4250    0.0000 C   0  0  0  0  0  0  0  0  0  0  0  0
   -3.5724   -7.8375    0.0000 C   0  0  0  0  0  0  0  0  0  0  0  0
   -4.2868   -7.4250    0.0000 C   0  0  0  0  0  0  0  0  0  0  0  0
   -4.2868   -6.6000    0.0000 C   0  0  0  0  0  0  0  0  0  0  0  0
   -3.5724   -6.1875    0.0000 C   0  0  0  0  0  0  0  0  0  0  0  0
  1  2  1  0  0  0  0
  2  3  2  0  0  0  0
  2  4  1  0  0  0  0
  4  5  4  0  0  0  0
  5  6  4  0  0  0  0
  6  7  4  0  0  0  0
  7  8  4  0  0  0  0
  8  9  4  0  0  0  0
  4  9  4  0  0  0  0
  7 10  1  0  0  0  0
 10 11  2  0  0  0  0
 10 12  1  0  0  0  0
 12 13  1  0  0  0  0
 13 14  4  0  0  0  0
 14 15  1  0  0  0  0
 14 16  4  0  0  0  0
 16 17  4  0  0  0  0
 17 18  1  0  0  0  0
 17 19  4  0  0  0  0
 19 20  1  0  0  0  0
 19 21  4  0  0  0  0
 13 21  4  0  0  0  0
 21 22  1  0  0  0  0
 22 23  1  0  0  0  0
 23 24  1  0  0  0  0
 24 25  2  0  0  0  0
 24 26  1  0  0  0  0
 26 27  4  0  0  0  0
 27 28  4  0  0  0  0
 28 29  4  0  0  0  0
 29 30  4  0  0  0  0
 30 31  4  0  0  0  0
 26 31  4  0  0  0  0
M  CHG  2   1  -1   2   1
M  END

> <ChembankId>
1919035

> <SMILES>
[O-][N+](=O)c1ccc(cc1)C(=O)Oc2c(Cl)cc(Cl)c(Cl)c2CNC(=O)c3ccccc3

> <InChI>
1/C21H13Cl3N2O5/c22-16-10-17(23)19(31-21(28)13-6-8-14(9-7-13)26(29)30)15(18(16)24)11-25-20(27)12-4-2-1-3-5-12/h1-10H,11H2,(H,25,27)

$$$$
1708885
  Marvin  11101114192D          

 26 29  0  0  0  0            999 V2000
   -2.2337   -5.6992    0.0000 C   0  0  0  0  0  0  0  0  0  0  0  0
   -1.8212   -4.9848    0.0000 C   0  0  0  0  0  0  0  0  0  0  0  0
   -2.2337   -4.2703    0.0000 C   0  0  0  0  0  0  0  0  0  0  0  0
   -1.8212   -3.5558    0.0000 C   0  0  0  0  0  0  0  0  0  0  0  0
   -0.9962   -3.5558    0.0000 C   0  0  0  0  0  0  0  0  0  0  0  0
   -0.5837   -4.2703    0.0000 C   0  0  0  0  0  0  0  0  0  0  0  0
   -0.9962   -4.9848    0.0000 C   0  0  0  0  0  0  0  0  0  0  0  0
   -0.5837   -2.8414    0.0000 S   0  0  0  0  0  0  0  0  0  0  0  0
    0.1308   -3.2539    0.0000 O   0  0  0  0  0  0  0  0  0  0  0  0
   -1.2982   -2.4289    0.0000 O   0  0  0  0  0  0  0  0  0  0  0  0
   -0.1712   -2.1269    0.0000 N   0  0  0  0  0  0  0  0  0  0  0  0
   -0.5837   -1.4124    0.0000 C   0  0  0  0  0  0  0  0  0  0  0  0
   -1.4087   -1.4124    0.0000 C   0  0  0  0  0  0  0  0  0  0  0  0
   -1.8212   -0.6979    0.0000 C   0  0  0  0  0  0  0  0  0  0  0  0
   -1.4087    0.0165    0.0000 C   0  0  0  0  0  0  0  0  0  0  0  0
   -0.5837    0.0165    0.0000 C   0  0  0  0  0  0  0  0  0  0  0  0
   -0.1712   -0.6979    0.0000 C   0  0  0  0  0  0  0  0  0  0  0  0
    0.6538   -0.6979    0.0000 C   0  0  0  0  0  0  0  0  0  0  0  0
    1.1387   -0.0305    0.0000 N   0  0  0  0  0  0  0  0  0  0  0  0
    1.9233   -0.2854    0.0000 C   0  0  0  0  0  0  0  0  0  0  0  0
    2.6378    0.1271    0.0000 C   0  0  0  0  0  0  0  0  0  0  0  0
    3.3523   -0.2854    0.0000 C   0  0  0  0  0  0  0  0  0  0  0  0
    3.3523   -1.1104    0.0000 C   0  0  0  0  0  0  0  0  0  0  0  0
    2.6378   -1.5229    0.0000 C   0  0  0  0  0  0  0  0  0  0  0  0
    1.9233   -1.1104    0.0000 C   0  0  0  0  0  0  0  0  0  0  0  0
    1.1387   -1.3654    0.0000 O   0  0  0  0  0  0  0  0  0  0  0  0
  1  2  1  0  0  0  0
  2  3  4  0  0  0  0
  3  4  4  0  0  0  0
  4  5  4  0  0  0  0
  5  6  4  0  0  0  0
  6  7  4  0  0  0  0
  2  7  4  0  0  0  0
  5  8  1  0  0  0  0
  8  9  2  0  0  0  0
  8 10  2  0  0  0  0
  8 11  1  0  0  0  0
 11 12  1  0  0  0  0
 12 13  4  0  0  0  0
 13 14  4  0  0  0  0
 14 15  4  0  0  0  0
 15 16  4  0  0  0  0
 16 17  4  0  0  0  0
 12 17  4  0  0  0  0
 17 18  1  0  0  0  0
 18 19  4  0  0  0  0
 19 20  4  0  0  0  0
 20 21  4  0  0  0  0
 21 22  4  0  0  0  0
 22 23  4  0  0  0  0
 23 24  4  0  0  0  0
 24 25  4  0  0  0  0
 20 25  4  0  0  0  0
 25 26  4  0  0  0  0
 18 26  4  0  0  0  0
M  END

> <ChembankId>
1708885

> <SMILES>
Cc1ccc(cc1)S(=O)(=O)Nc2ccccc2c3nc4ccccc4o3

> <InChI>
1/C20H16N2O3S/c1-14-10-12-15(13-11-14)26(23,24)22-17-7-3-2-6-16(17)20-21-18-8-4-5-9-19(18)25-20/h2-13,22H,1H3

$$$$
1350
  Marvin  11101114192D          

 22 24  0  0  0  0            999 V2000
   -1.8212   -2.1269    0.0000 C   0  0  0  0  0  0  0  0  0  0  0  0
   -1.4087   -1.4124    0.0000 O   0  0  0  0  0  0  0  0  0  0  0  0
   -0.5837   -1.4124    0.0000 C   0  0  0  0  0  0  0  0  0  0  0  0
   -0.1712   -2.1269    0.0000 O   0  0  0  0  0  0  0  0  0  0  0  0
   -0.1712   -0.6979    0.0000 N   0  0  0  0  0  0  0  0  0  0  0  0
    0.6538   -0.6979    0.0000 C   0  0  0  0  0  0  0  0  0  0  0  0
    1.1387   -0.0305    0.0000 N   0  0  0  0  0  0  0  0  0  0  0  0
    1.9233   -0.2854    0.0000 C   0  0  0  0  0  0  0  0  0  0  0  0
    2.6378    0.1271    0.0000 C   0  0  0  0  0  0  0  0  0  0  0  0
    3.3523   -0.2854    0.0000 C   0  0  0  0  0  0  0  0  0  0  0  0
    3.3523   -1.1104    0.0000 C   0  0  0  0  0  0  0  0  0  0  0  0
    2.6378   -1.5229    0.0000 C   0  0  0  0  0  0  0  0  0  0  0  0
    1.9233   -1.1104    0.0000 C   0  0  0  0  0  0  0  0  0  0  0  0
    1.1387   -1.3654    0.0000 N   0  0  0  0  0  0  0  0  0  0  0  0
    4.0668    0.1271    0.0000 C   0  0  0  0  0  0  0  0  0  0  0  0
    4.0668    0.9521    0.0000 O   0  0  0  0  0  0  0  0  0  0  0  0
    4.7812   -0.2854    0.0000 C   0  0  0  0  0  0  0  0  0  0  0  0
    5.4957    0.1271    0.0000 C   0  0  0  0  0  0  0  0  0  0  0  0
    6.2102   -0.2854    0.0000 C   0  0  0  0  0  0  0  0  0  0  0  0
    6.2102   -1.1104    0.0000 C   0  0  0  0  0  0  0  0  0  0  0  0
    5.4957   -1.5229    0.0000 C   0  0  0  0  0  0  0  0  0  0  0  0
    4.7812   -1.1104    0.0000 C   0  0  0  0  0  0  0  0  0  0  0  0
  1  2  1  0  0  0  0
  2  3  1  0  0  0  0
  3  4  2  0  0  0  0
  3  5  1  0  0  0  0
  5  6  1  0  0  0  0
  6  7  4  0  0  0  0
  7  8  4  0  0  0  0
  8  9  4  0  0  0  0
  9 10  4  0  0  0  0
 10 11  4  0  0  0  0
 11 12  4  0  0  0  0
 12 13  4  0  0  0  0
  8 13  4  0  0  0  0
 13 14  4  0  0  0  0
  6 14  4  0  0  0  0
 10 15  1  0  0  0  0
 15 16  2  0  0  0  0
 15 17  1  0  0  0  0
 17 18  4  0  0  0  0
 18 19  4  0  0  0  0
 19 20  4  0  0  0  0
 20 21  4  0  0  0  0
 21 22  4  0  0  0  0
 17 22  4  0  0  0  0
M  STY  1   1 DAT
M  SAL   1  1  14
M  SDT   1 MRV_IMPLICIT_H                                        
M  SDD   1     0.0000    0.0000    DR    ALL  0       0  
M  SED   1 IMPL_H1
M  END

> <ChembankId>
1350

> <SMILES>
COC(=O)Nc1nc2cc(ccc2[nH]1)C(=O)c3ccccc3

> <InChI>
1/C16H13N3O3/c1-22-16(21)19-15-17-12-8-7-11(9-13(12)18-15)14(20)10-5-3-2-4-6-10/h2-9H,1H3,(H2,17,18,19,21)

$$$$
1777712
  Marvin  11101114192D          

 29 32  0  0  0  0            999 V2000
   -3.0587   -1.4124    0.0000 C   0  0  0  0  0  0  0  0  0  0  0  0
   -2.6462   -0.6979    0.0000 C   0  0  0  0  0  0  0  0  0  0  0  0
   -1.8212   -0.6979    0.0000 C   0  0  0  0  0  0  0  0  0  0  0  0
   -1.4087    0.0165    0.0000 C   0  0  0  0  0  0  0  0  0  0  0  0
   -0.5837    0.0165    0.0000 C   0  0  0  0  0  0  0  0  0  0  0  0
   -0.1712   -0.6979    0.0000 C   0  0  0  0  0  0  0  0  0  0  0  0
   -0.5837   -1.4124    0.0000 C   0  0  0  0  0  0  0  0  0  0  0  0
   -1.4087   -1.4124    0.0000 C   0  0  0  0  0  0  0  0  0  0  0  0
    0.6538   -0.6979    0.0000 C   0  0  0  0  0  0  0  0  0  0  0  0
    1.1387   -0.0305    0.0000 N   0  0  0  0  0  0  0  0  0  0  0  0
    1.9233   -0.2854    0.0000 C   0  0  0  0  0  0  0  0  0  0  0  0
    2.6378    0.1271    0.0000 C   0  0  0  0  0  0  0  0  0  0  0  0
    3.3523   -0.2854    0.0000 C   0  0  0  0  0  0  0  0  0  0  0  0
    4.0668    0.1271    0.0000 N   0  0  0  0  0  0  0  0  0  0  0  0
    4.7812   -0.2854    0.0000 C   0  0  0  0  0  0  0  0  0  0  0  0
    4.7812   -1.1104    0.0000 O   0  0  0  0  0  0  0  0  0  0  0  0
    5.4957    0.1271    0.0000 C   0  0  0  0  0  0  0  0  0  0  0  0
    5.4957    0.9521    0.0000 C   0  0  0  0  0  0  0  0  0  0  0  0
    6.2102    1.3646    0.0000 C   0  0  0  0  0  0  0  0  0  0  0  0
    6.9246    0.9521    0.0000 C   0  0  0  0  0  0  0  0  0  0  0  0
    6.9246    0.1271    0.0000 C   0  0  0  0  0  0  0  0  0  0  0  0
    6.2102   -0.2854    0.0000 C   0  0  0  0  0  0  0  0  0  0  0  0
    7.6391   -0.2854    0.0000 N   0  3  0  0  0  0  0  0  0  0  0  0
    8.3536    0.1271    0.0000 O   0  0  0  0  0  0  0  0  0  0  0  0
    7.6391   -1.1104    0.0000 O   0  5  0  0  0  0  0  0  0  0  0  0
    3.3523   -1.1104    0.0000 C   0  0  0  0  0  0  0  0  0  0  0  0
    2.6378   -1.5229    0.0000 C   0  0  0  0  0  0  0  0  0  0  0  0
    1.9233   -1.1104    0.0000 C   0  0  0  0  0  0  0  0  0  0  0  0
    1.1387   -1.3654    0.0000 O   0  0  0  0  0  0  0  0  0  0  0  0
  1  2  1  0  0  0  0
  2  3  1  0  0  0  0
  3  4  4  0  0  0  0
  4  5  4  0  0  0  0
  5  6  4  0  0  0  0
  6  7  4  0  0  0  0
  7  8  4  0  0  0  0
  3  8  4  0  0  0  0
  6  9  1  0  0  0  0
  9 10  4  0  0  0  0
 10 11  4  0  0  0  0
 11 12  4  0  0  0  0
 12 13  4  0  0  0  0
 13 14  1  0  0  0  0
 14 15  1  0  0  0  0
 15 16  2  0  0  0  0
 15 17  1  0  0  0  0
 17 18  4  0  0  0  0
 18 19  4  0  0  0  0
 19 20  4  0  0  0  0
 20 21  4  0  0  0  0
 21 22  4  0  0  0  0
 17 22  4  0  0  0  0
 21 23  1  0  0  0  0
 23 24  2  0  0  0  0
 23 25  1  0  0  0  0
 13 26  4  0  0  0  0
 26 27  4  0  0  0  0
 27 28  4  0  0  0  0
 11 28  4  0  0  0  0
 28 29  4  0  0  0  0
  9 29  4  0  0  0  0
M  CHG  2  23   1  25  -1
M  END

> <ChembankId>
1777712

> <SMILES>
CCc1ccc(cc1)c2nc3cc(NC(=O)c4cccc(c4)[N+](=O)[O-])ccc3o2

> <InChI>
1/C22H17N3O4/c1-2-14-6-8-15(9-7-14)22-24-19-13-17(10-11-20(19)29-22)23-21(26)16-4-3-5-18(12-16)25(27)28/h3-13H,2H2,1H3,(H,23,26)

$$$$
1919544
  Marvin  11101114192D          

 40 43  0  0  0  0            999 V2000
   -0.7145   -3.7125    0.0000 O   0  5  0  0  0  0  0  0  0  0  0  0
    0.0000   -4.1250    0.0000 N   0  3  0  0  0  0  0  0  0  0  0  0
    0.7145   -3.7125    0.0000 O   0  0  0  0  0  0  0  0  0  0  0  0
    0.0000   -4.9500    0.0000 C   0  0  0  0  0  0  0  0  0  0  0  0
    0.7145   -5.3625    0.0000 C   0  0  0  0  0  0  0  0  0  0  0  0
    0.7145   -6.1875    0.0000 C   0  0  0  0  0  0  0  0  0  0  0  0
    0.0000   -6.6000    0.0000 C   0  0  0  0  0  0  0  0  0  0  0  0
   -0.7145   -6.1875    0.0000 C   0  0  0  0  0  0  0  0  0  0  0  0
   -0.7145   -5.3625    0.0000 C   0  0  0  0  0  0  0  0  0  0  0  0
   -1.4289   -4.9500    0.0000 Br  0  0  0  0  0  0  0  0  0  0  0  0
    1.4289   -6.6000    0.0000 C   0  0  0  0  0  0  0  0  0  0  0  0
    1.4289   -7.4250    0.0000 O   0  0  0  0  0  0  0  0  0  0  0  0
    2.1434   -6.1875    0.0000 O   0  0  0  0  0  0  0  0  0  0  0  0
    2.8579   -6.6000    0.0000 C   0  0  0  0  0  0  0  0  0  0  0  0
    3.5724   -6.1875    0.0000 C   0  0  0  0  0  0  0  0  0  0  0  0
    4.2868   -6.6000    0.0000 C   0  0  0  0  0  0  0  0  0  0  0  0
    4.2868   -7.4250    0.0000 C   0  0  0  0  0  0  0  0  0  0  0  0
    5.0013   -7.8375    0.0000 O   0  0  0  0  0  0  0  0  0  0  0  0
    5.7158   -7.4250    0.0000 C   0  0  0  0  0  0  0  0  0  0  0  0
    5.7158   -6.6000    0.0000 O   0  0  0  0  0  0  0  0  0  0  0  0
    6.4302   -7.8375    0.0000 C   0  0  0  0  0  0  0  0  0  0  0  0
    7.1447   -7.4250    0.0000 C   0  0  0  0  0  0  0  0  0  0  0  0
    7.8592   -7.8375    0.0000 C   0  0  0  0  0  0  0  0  0  0  0  0
    7.8592   -8.6625    0.0000 C   0  0  0  0  0  0  0  0  0  0  0  0
    8.5737   -9.0750    0.0000 Br  0  0  0  0  0  0  0  0  0  0  0  0
    7.1447   -9.0750    0.0000 C   0  0  0  0  0  0  0  0  0  0  0  0
    6.4302   -8.6625    0.0000 C   0  0  0  0  0  0  0  0  0  0  0  0
    7.1447   -9.9000    0.0000 N   0  3  0  0  0  0  0  0  0  0  0  0
    6.4302  -10.3125    0.0000 O   0  0  0  0  0  0  0  0  0  0  0  0
    7.8592  -10.3125    0.0000 O   0  5  0  0  0  0  0  0  0  0  0  0
    3.5724   -7.8375    0.0000 C   0  0  0  0  0  0  0  0  0  0  0  0
    2.8579   -7.4250    0.0000 C   0  0  0  0  0  0  0  0  0  0  0  0
    3.5724   -8.6625    0.0000 C   0  0  0  0  0  0  0  0  0  0  0  0
    2.8579   -9.0750    0.0000 O   0  0  0  0  0  0  0  0  0  0  0  0
    4.2868   -9.0750    0.0000 C   0  0  0  0  0  0  0  0  0  0  0  0
    5.0013   -8.6625    0.0000 C   0  0  0  0  0  0  0  0  0  0  0  0
    5.7158   -9.0750    0.0000 C   0  0  0  0  0  0  0  0  0  0  0  0
    5.7158   -9.9000    0.0000 C   0  0  0  0  0  0  0  0  0  0  0  0
    5.0013  -10.3125    0.0000 C   0  0  0  0  0  0  0  0  0  0  0  0
    4.2868   -9.9000    0.0000 C   0  0  0  0  0  0  0  0  0  0  0  0
  1  2  1  0  0  0  0
  2  3  2  0  0  0  0
  2  4  1  0  0  0  0
  4  5  4  0  0  0  0
  5  6  4  0  0  0  0
  6  7  4  0  0  0  0
  7  8  4  0  0  0  0
  8  9  4  0  0  0  0
  4  9  4  0  0  0  0
  9 10  1  0  0  0  0
  6 11  1  0  0  0  0
 11 12  2  0  0  0  0
 11 13  1  0  0  0  0
 13 14  1  0  0  0  0
 14 15  4  0  0  0  0
 15 16  4  0  0  0  0
 16 17  4  0  0  0  0
 17 18  1  0  0  0  0
 18 19  1  0  0  0  0
 19 20  2  0  0  0  0
 19 21  1  0  0  0  0
 21 22  4  0  0  0  0
 22 23  4  0  0  0  0
 23 24  4  0  0  0  0
 24 25  1  0  0  0  0
 24 26  4  0  0  0  0
 26 27  4  0  0  0  0
 21 27  4  0  0  0  0
 26 28  1  0  0  0  0
 28 29  2  0  0  0  0
 28 30  1  0  0  0  0
 17 31  4  0  0  0  0
 31 32  4  0  0  0  0
 14 32  4  0  0  0  0
 31 33  1  0  0  0  0
 33 34  2  0  0  0  0
 33 35  1  0  0  0  0
 35 36  4  0  0  0  0
 36 37  4  0  0  0  0
 37 38  4  0  0  0  0
 38 39  4  0  0  0  0
 39 40  4  0  0  0  0
 35 40  4  0  0  0  0
M  CHG  4   1  -1   2   1  28   1  30  -1
M  END

> <ChembankId>
1919544

> <SMILES>
[O-][N+](=O)c1cc(ccc1Br)C(=O)Oc2ccc(OC(=O)c3ccc(Br)c(c3)[N+](=O)[O-])c(c2)C(=O)c4ccccc4

> <InChI>
1/C27H14Br2N2O9/c28-20-9-6-16(12-22(20)30(35)36)26(33)39-18-8-11-24(19(14-18)25(32)15-4-2-1-3-5-15)40-27(34)17-7-10-21(29)23(13-17)31(37)38/h1-14H

$$$$
1919932
  Marvin  11101114192D          

 21 22  0  0  0  0            999 V2000
    0.7145   -1.2375    0.0000 O   0  0  0  0  0  0  0  0  0  0  0  0
    0.0000   -1.6500    0.0000 C   0  0  0  0  0  0  0  0  0  0  0  0
   -0.7145   -1.2375    0.0000 O   0  0  0  0  0  0  0  0  0  0  0  0
    0.0000   -2.4750    0.0000 C   0  0  0  0  0  0  0  0  0  0  0  0
   -0.7145   -2.8875    0.0000 C   0  0  0  0  0  0  0  0  0  0  0  0
   -0.7145   -3.7125    0.0000 C   0  0  0  0  0  0  0  0  0  0  0  0
    0.0000   -4.1250    0.0000 C   0  0  0  0  0  0  0  0  0  0  0  0
    0.7145   -3.7125    0.0000 C   0  0  0  0  0  0  0  0  0  0  0  0
    0.7145   -2.8875    0.0000 C   0  0  0  0  0  0  0  0  0  0  0  0
    1.4289   -2.4750    0.0000 N   0  0  0  0  0  0  0  0  0  0  0  0
    2.1434   -2.8875    0.0000 C   0  0  0  0  0  0  0  0  0  0  0  0
    2.1434   -3.7125    0.0000 O   0  0  0  0  0  0  0  0  0  0  0  0
    2.8579   -2.4750    0.0000 C   0  0  0  0  0  0  0  0  0  0  0  0
    2.8579   -1.6500    0.0000 C   0  0  0  0  0  0  0  0  0  0  0  0
    3.5724   -1.2375    0.0000 C   0  0  0  0  0  0  0  0  0  0  0  0
    4.2868   -1.6500    0.0000 C   0  0  0  0  0  0  0  0  0  0  0  0
    4.2868   -2.4750    0.0000 C   0  0  0  0  0  0  0  0  0  0  0  0
    3.5724   -2.8875    0.0000 C   0  0  0  0  0  0  0  0  0  0  0  0
    0.0000   -4.9500    0.0000 N   0  3  0  0  0  0  0  0  0  0  0  0
    0.7145   -5.3625    0.0000 O   0  0  0  0  0  0  0  0  0  0  0  0
   -0.7145   -5.3625    0.0000 O   0  5  0  0  0  0  0  0  0  0  0  0
  1  2  1  0  0  0  0
  2  3  2  0  0  0  0
  2  4  1  0  0  0  0
  4  5  4  0  0  0  0
  5  6  4  0  0  0  0
  6  7  4  0  0  0  0
  7  8  4  0  0  0  0
  8  9  4  0  0  0  0
  4  9  4  0  0  0  0
  9 10  1  0  0  0  0
 10 11  1  0  0  0  0
 11 12  2  0  0  0  0
 11 13  1  0  0  0  0
 13 14  4  0  0  0  0
 14 15  4  0  0  0  0
 15 16  4  0  0  0  0
 16 17  4  0  0  0  0
 17 18  4  0  0  0  0
 13 18  4  0  0  0  0
  7 19  1  0  0  0  0
 19 20  2  0  0  0  0
 19 21  1  0  0  0  0
M  CHG  2  19   1  21  -1
M  END

> <ChembankId>
1919932

> <SMILES>
OC(=O)c1ccc(cc1NC(=O)c2ccccc2)[N+](=O)[O-]

> <InChI>
1/C14H10N2O5/c17-13(9-4-2-1-3-5-9)15-12-8-10(16(20)21)6-7-11(12)14(18)19/h1-8H,(H,15,17)(H,18,19)

$$$$
872
  Marvin  11101114192D          

 23 24  0  0  0  0            999 V2000
   -3.9381   -1.2277    0.0000 C   0  0  0  0  0  0  0  0  0  0  0  0
   -3.1279   -1.0718    0.0000 C   0  0  0  0  0  0  0  0  0  0  0  0
   -2.5878   -1.6954    0.0000 N   0  0  0  0  0  0  0  0  0  0  0  0
   -2.8579   -2.4750    0.0000 C   0  0  0  0  0  0  0  0  0  0  0  0
   -3.6680   -2.6309    0.0000 C   0  0  0  0  0  0  0  0  0  0  0  0
   -1.7777   -1.5395    0.0000 C   0  0  0  0  0  0  0  0  0  0  0  0
   -1.2376   -2.1632    0.0000 C   0  0  0  0  0  0  0  0  0  0  0  0
   -0.4275   -2.0073    0.0000 O   0  0  0  0  0  0  0  0  0  0  0  0
    0.1126   -2.6309    0.0000 C   0  0  0  0  0  0  0  0  0  0  0  0
   -0.1574   -3.4105    0.0000 O   0  0  0  0  0  0  0  0  0  0  0  0
    0.9227   -2.4750    0.0000 C   0  0  0  0  0  0  0  0  0  0  0  0
    1.4628   -3.0986    0.0000 C   0  0  0  0  0  0  0  0  0  0  0  0
    2.2730   -2.9427    0.0000 C   0  0  0  0  0  0  0  0  0  0  0  0
    2.8131   -3.5664    0.0000 C   0  0  0  0  0  0  0  0  0  0  0  0
    2.5430   -4.3459    0.0000 C   0  0  0  0  0  0  0  0  0  0  0  0
    1.7329   -4.5018    0.0000 C   0  0  0  0  0  0  0  0  0  0  0  0
    1.1928   -3.8782    0.0000 C   0  0  0  0  0  0  0  0  0  0  0  0
    1.1928   -1.6954    0.0000 C   0  0  0  0  0  0  0  0  0  0  0  0
    0.6527   -1.0718    0.0000 C   0  0  0  0  0  0  0  0  0  0  0  0
    0.9227   -0.2923    0.0000 C   0  0  0  0  0  0  0  0  0  0  0  0
    1.7329   -0.1363    0.0000 C   0  0  0  0  0  0  0  0  0  0  0  0
    2.2730   -0.7600    0.0000 C   0  0  0  0  0  0  0  0  0  0  0  0
    2.0029   -1.5395    0.0000 C   0  0  0  0  0  0  0  0  0  0  0  0
  1  2  1  0  0  0  0
  2  3  1  0  0  0  0
  3  4  1  0  0  0  0
  4  5  1  0  0  0  0
  3  6  1  0  0  0  0
  6  7  1  0  0  0  0
  7  8  1  0  0  0  0
  8  9  1  0  0  0  0
  9 10  2  0  0  0  0
  9 11  1  0  0  0  0
 11 12  1  0  0  0  0
 12 13  4  0  0  0  0
 13 14  4  0  0  0  0
 14 15  4  0  0  0  0
 15 16  4  0  0  0  0
 16 17  4  0  0  0  0
 12 17  4  0  0  0  0
 11 18  1  0  0  0  0
 18 19  4  0  0  0  0
 19 20  4  0  0  0  0
 20 21  4  0  0  0  0
 21 22  4  0  0  0  0
 22 23  4  0  0  0  0
 18 23  4  0  0  0  0
M  END

> <ChembankId>
872

> <SMILES>
CCN(CC)CCOC(=O)C(c1ccccc1)c2ccccc2

> <InChI>
1/C20H25NO2/c1-3-21(4-2)15-16-23-20(22)19(17-11-7-5-8-12-17)18-13-9-6-10-14-18/h5-14,19H,3-4,15-16H2,1-2H3

$$$$
1920238
  Marvin  11101114192D          

 24 26  0  0  0  0            999 V2000
    3.0421    1.8695    0.0000 C   0  0  0  0  0  0  0  0  0  0  0  0
    3.5724    1.2375    0.0000 C   0  0  0  0  0  0  0  0  0  0  0  0
    4.1027    1.8695    0.0000 C   0  0  0  0  0  0  0  0  0  0  0  0
    4.2868    0.8250    0.0000 C   0  0  0  0  0  0  0  0  0  0  0  0
    4.2868    0.0000    0.0000 C   0  0  0  0  0  0  0  0  0  0  0  0
    3.5724   -0.4125    0.0000 C   0  0  0  0  0  0  0  0  0  0  0  0
    3.5724   -1.2375    0.0000 O   0  0  0  0  0  0  0  0  0  0  0  0
    2.8579    0.0000    0.0000 C   0  0  0  0  0  0  0  0  0  0  0  0
    2.8579    0.8250    0.0000 C   0  0  0  0  0  0  0  0  0  0  0  0
    2.1434    1.2375    0.0000 O   0  0  0  0  0  0  0  0  0  0  0  0
    1.4289    0.8250    0.0000 C   0  0  0  0  0  0  0  0  0  0  0  0
    1.4289    0.0000    0.0000 C   0  0  0  0  0  0  0  0  0  0  0  0
    2.1434   -0.4125    0.0000 C   0  0  0  0  0  0  0  0  0  0  0  0
    2.1434   -1.2375    0.0000 C   0  0  0  0  0  0  0  0  0  0  0  0
    1.4289   -1.6500    0.0000 C   0  0  0  0  0  0  0  0  0  0  0  0
    1.4289   -2.4750    0.0000 Cl  0  0  0  0  0  0  0  0  0  0  0  0
    0.7145   -1.2375    0.0000 Cl  0  0  0  0  0  0  0  0  0  0  0  0
    0.7145   -0.4125    0.0000 C   0  0  0  0  0  0  0  0  0  0  0  0
    0.2295   -1.0799    0.0000 O   0  0  0  0  0  0  0  0  0  0  0  0
    0.0000   -0.0000    0.0000 C   0  0  0  0  0  0  0  0  0  0  0  0
    0.0000    0.8250    0.0000 C   0  0  0  0  0  0  0  0  0  0  0  0
    0.7145    1.2375    0.0000 C   0  0  0  0  0  0  0  0  0  0  0  0
    1.1018    1.9659    0.0000 C   0  0  0  0  0  0  0  0  0  0  0  0
    0.3272    1.9659    0.0000 C   0  0  0  0  0  0  0  0  0  0  0  0
  1  2  1  0  0  0  0
  2  3  1  0  0  0  0
  2  4  1  0  0  0  0
  4  5  1  0  0  0  0
  5  6  1  0  0  0  0
  6  7  2  0  0  0  0
  6  8  1  0  0  0  0
  8  9  2  0  0  0  0
  2  9  1  0  0  0  0
  9 10  1  0  0  0  0
 10 11  1  0  0  0  0
 11 12  2  0  0  0  0
 12 13  1  0  0  0  0
  8 13  1  0  0  0  0
 13 14  1  0  0  0  0
 14 15  2  0  0  0  0
 15 16  1  0  0  0  0
 15 17  1  0  0  0  0
 12 18  1  0  0  0  0
 18 19  2  0  0  0  0
 18 20  1  0  0  0  0
 20 21  1  0  0  0  0
 21 22  1  0  0  0  0
 11 22  1  0  0  0  0
 22 23  1  0  0  0  0
 22 24  1  0  0  0  0
M  END

> <ChembankId>
1920238

> <SMILES>
CC1(C)CCC(=O)C2=C1OC3=C(C2C=C(Cl)Cl)C(=O)CCC3(C)C

> <InChI>
1/C19H22Cl2O3/c1-18(2)7-5-11(22)14-10(9-13(20)21)15-12(23)6-8-19(3,4)17(15)24-16(14)18/h9-10H,5-8H2,1-4H3

$$$$
1920301
  Marvin  11101114192D          

 25 27  0  0  0  0            999 V2000
    0.8212   -1.2991    0.0000 C   0  0  0  0  0  0  0  0  0  0  0  0
    0.1067   -1.7116    0.0000 C   0  0  0  0  0  0  0  0  0  0  0  0
    0.1067   -2.5366    0.0000 C   0  0  0  0  0  0  0  0  0  0  0  0
    0.7741   -3.0215    0.0000 C   0  0  0  0  0  0  0  0  0  0  0  0
    0.5192   -3.8062    0.0000 N   0  0  0  0  0  0  0  0  0  0  0  0
   -0.3058   -3.8062    0.0000 N   0  0  0  0  0  0  0  0  0  0  0  0
   -0.5607   -3.0215    0.0000 C   0  0  0  0  0  0  0  0  0  0  0  0
   -1.3454   -2.7666    0.0000 O   0  0  0  0  0  0  0  0  0  0  0  0
   -0.7907   -4.4736    0.0000 C   0  0  0  0  0  0  0  0  0  0  0  0
   -0.4552   -5.2273    0.0000 C   0  0  0  0  0  0  0  0  0  0  0  0
   -0.9401   -5.8947    0.0000 C   0  0  0  0  0  0  0  0  0  0  0  0
   -1.7606   -5.8085    0.0000 C   0  0  0  0  0  0  0  0  0  0  0  0
   -2.2455   -6.4759    0.0000 Br  0  0  0  0  0  0  0  0  0  0  0  0
   -2.0961   -5.0548    0.0000 C   0  0  0  0  0  0  0  0  0  0  0  0
   -1.6112   -4.3874    0.0000 C   0  0  0  0  0  0  0  0  0  0  0  0
   -1.9468   -3.6337    0.0000 Br  0  0  0  0  0  0  0  0  0  0  0  0
    1.5588   -2.7666    0.0000 C   0  0  0  0  0  0  0  0  0  0  0  0
   -0.6078   -1.2991    0.0000 N   0  0  0  0  0  0  0  0  0  0  0  0
   -1.3222   -1.7116    0.0000 C   0  0  0  0  0  0  0  0  0  0  0  0
   -2.0367   -1.2991    0.0000 C   0  0  0  0  0  0  0  0  0  0  0  0
   -2.7512   -1.7116    0.0000 C   0  0  0  0  0  0  0  0  0  0  0  0
   -3.4656   -1.2991    0.0000 C   0  0  0  0  0  0  0  0  0  0  0  0
   -3.4656   -0.4741    0.0000 C   0  0  0  0  0  0  0  0  0  0  0  0
   -2.7512   -0.0616    0.0000 C   0  0  0  0  0  0  0  0  0  0  0  0
   -2.0367   -0.4741    0.0000 C   0  0  0  0  0  0  0  0  0  0  0  0
  1  2  1  0  0  0  0
  2  3  2  0  0  0  0
  3  4  1  0  0  0  0
  4  5  2  0  0  0  0
  5  6  1  0  0  0  0
  6  7  1  0  0  0  0
  3  7  1  0  0  0  0
  7  8  2  0  0  0  0
  6  9  1  0  0  0  0
  9 10  4  0  0  0  0
 10 11  4  0  0  0  0
 11 12  4  0  0  0  0
 12 13  1  0  0  0  0
 12 14  4  0  0  0  0
 14 15  4  0  0  0  0
  9 15  4  0  0  0  0
 15 16  1  0  0  0  0
  4 17  1  0  0  0  0
  2 18  1  0  0  0  0
 18 19  1  0  0  0  0
 19 20  1  0  0  0  0
 20 21  4  0  0  0  0
 21 22  4  0  0  0  0
 22 23  4  0  0  0  0
 23 24  4  0  0  0  0
 24 25  4  0  0  0  0
 20 25  4  0  0  0  0
M  END

> <ChembankId>
1920301

> <SMILES>
C/C(=C/1\C(=NN(C1=O)c2ccc(Br)cc2Br)C)/NCc3ccccc3

> <InChI>
1/C19H17Br2N3O/c1-12(22-11-14-6-4-3-5-7-14)18-13(2)23-24(19(18)25)17-9-8-15(20)10-16(17)21/h3-10,22H,11H2,1-2H3

$$$$
934
  Marvin  11101114192D          

 19 20  0  0  0  0            999 V2000
    2.1434   -1.2375    0.0000 C   0  0  0  0  0  0  0  0  0  0  0  0
    2.1434   -2.0625    0.0000 C   0  0  0  0  0  0  0  0  0  0  0  0
    2.8579   -2.4750    0.0000 C   0  0  0  0  0  0  0  0  0  0  0  0
    2.8579   -3.3000    0.0000 C   0  0  0  0  0  0  0  0  0  0  0  0
    3.5724   -3.7125    0.0000 C   0  0  0  0  0  0  0  0  0  0  0  0
    2.1434   -3.7125    0.0000 N   0  0  0  0  0  0  0  0  0  0  0  0
    1.4289   -3.3000    0.0000 C   0  0  0  0  0  0  0  0  0  0  0  0
    0.7145   -3.7125    0.0000 N   0  0  0  0  0  0  0  0  0  0  0  0
    0.0000   -3.3000    0.0000 S   0  0  0  0  0  0  0  0  0  0  0  0
    0.4125   -2.5855    0.0000 O   0  0  0  0  0  0  0  0  0  0  0  0
   -0.4125   -4.0145    0.0000 O   0  0  0  0  0  0  0  0  0  0  0  0
   -0.7145   -2.8875    0.0000 C   0  0  0  0  0  0  0  0  0  0  0  0
   -1.4289   -3.3000    0.0000 C   0  0  0  0  0  0  0  0  0  0  0  0
   -2.1434   -2.8875    0.0000 C   0  0  0  0  0  0  0  0  0  0  0  0
   -2.1434   -2.0625    0.0000 C   0  0  0  0  0  0  0  0  0  0  0  0
   -2.8579   -1.6500    0.0000 N   0  0  0  0  0  0  0  0  0  0  0  0
   -1.4289   -1.6500    0.0000 C   0  0  0  0  0  0  0  0  0  0  0  0
   -0.7145   -2.0625    0.0000 C   0  0  0  0  0  0  0  0  0  0  0  0
    1.4289   -2.4750    0.0000 N   0  0  0  0  0  0  0  0  0  0  0  0
  1  2  1  0  0  0  0
  2  3  4  0  0  0  0
  3  4  4  0  0  0  0
  4  5  1  0  0  0  0
  4  6  4  0  0  0  0
  6  7  4  0  0  0  0
  7  8  1  0  0  0  0
  8  9  1  0  0  0  0
  9 10  2  0  0  0  0
  9 11  2  0  0  0  0
  9 12  1  0  0  0  0
 12 13  4  0  0  0  0
 13 14  4  0  0  0  0
 14 15  4  0  0  0  0
 15 16  1  0  0  0  0
 15 17  4  0  0  0  0
 17 18  4  0  0  0  0
 12 18  4  0  0  0  0
  7 19  4  0  0  0  0
  2 19  4  0  0  0  0
M  END

> <ChembankId>
934

> <SMILES>
Cc1cc(C)nc(NS(=O)(=O)c2ccc(N)cc2)n1

> <InChI>
1/C12H14N4O2S/c1-8-7-9(2)15-12(14-8)16-19(17,18)11-5-3-10(13)4-6-11/h3-7H,13H2,1-2H3,(H,14,15,16)

$$$$
1579728
  Marvin  11101114192D          

 19 21  0  0  0  0            999 V2000
   -2.3441   -2.8361    0.0000 Cl  0  0  0  0  0  0  0  0  0  0  0  0
   -1.5371   -2.6646    0.0000 C   0  0  0  0  0  0  0  0  0  0  0  0
   -1.2822   -1.8800    0.0000 C   0  0  0  0  0  0  0  0  0  0  0  0
   -0.4752   -1.7084    0.0000 C   0  0  0  0  0  0  0  0  0  0  0  0
    0.0768   -2.3215    0.0000 C   0  0  0  0  0  0  0  0  0  0  0  0
    0.8838   -2.1500    0.0000 C   0  0  0  0  0  0  0  0  0  0  0  0
    1.4358   -2.7631    0.0000 O   0  0  0  0  0  0  0  0  0  0  0  0
    1.1387   -1.3654    0.0000 N   0  0  0  0  0  0  0  0  0  0  0  0
    0.6538   -0.6979    0.0000 C   0  0  0  0  0  0  0  0  0  0  0  0
    1.1387   -0.0305    0.0000 N   0  0  0  0  0  0  0  0  0  0  0  0
    1.9233   -0.2854    0.0000 C   0  0  0  0  0  0  0  0  0  0  0  0
    2.6378    0.1271    0.0000 C   0  0  0  0  0  0  0  0  0  0  0  0
    3.3523   -0.2854    0.0000 C   0  0  0  0  0  0  0  0  0  0  0  0
    3.3523   -1.1104    0.0000 C   0  0  0  0  0  0  0  0  0  0  0  0
    2.6378   -1.5229    0.0000 C   0  0  0  0  0  0  0  0  0  0  0  0
    1.9233   -1.1104    0.0000 C   0  0  0  0  0  0  0  0  0  0  0  0
   -0.1781   -3.1062    0.0000 C   0  0  0  0  0  0  0  0  0  0  0  0
    0.3739   -3.7192    0.0000 Cl  0  0  0  0  0  0  0  0  0  0  0  0
   -0.9851   -3.2777    0.0000 C   0  0  0  0  0  0  0  0  0  0  0  0
  1  2  1  0  0  0  0
  2  3  4  0  0  0  0
  3  4  4  0  0  0  0
  4  5  4  0  0  0  0
  5  6  1  0  0  0  0
  6  7  2  0  0  0  0
  6  8  1  0  0  0  0
  8  9  4  0  0  0  0
  9 10  4  0  0  0  0
 10 11  4  0  0  0  0
 11 12  4  0  0  0  0
 12 13  4  0  0  0  0
 13 14  4  0  0  0  0
 14 15  4  0  0  0  0
 15 16  4  0  0  0  0
  8 16  4  0  0  0  0
 11 16  4  0  0  0  0
  5 17  4  0  0  0  0
 17 18  1  0  0  0  0
 17 19  4  0  0  0  0
  2 19  4  0  0  0  0
M  END

> <ChembankId>
1579728

> <SMILES>
Clc1ccc(C(=O)n2cnc3ccccc23)c(Cl)c1

> <InChI>
1/C14H8Cl2N2O/c15-9-5-6-10(11(16)7-9)14(19)18-8-17-12-3-1-2-4-13(12)18/h1-8H

$$$$
1186
  Marvin  11101114192D          

 17 18  0  0  0  0            999 V2000
    0.7145   -1.2375    0.0000 N   0  0  0  0  0  0  0  0  0  0  0  0
    0.7145   -2.0625    0.0000 C   0  0  0  0  0  0  0  0  0  0  0  0
    1.4289   -2.4750    0.0000 C   0  0  0  0  0  0  0  0  0  0  0  0
    1.4289   -3.3000    0.0000 C   0  0  0  0  0  0  0  0  0  0  0  0
    0.7145   -3.7125    0.0000 C   0  0  0  0  0  0  0  0  0  0  0  0
    0.0000   -3.3000    0.0000 C   0  0  0  0  0  0  0  0  0  0  0  0
    0.0000   -2.4750    0.0000 C   0  0  0  0  0  0  0  0  0  0  0  0
    0.7145   -4.5375    0.0000 S   0  0  0  0  0  0  0  0  0  0  0  0
   -0.1105   -4.5375    0.0000 O   0  0  0  0  0  0  0  0  0  0  0  0
    1.5395   -4.5375    0.0000 O   0  0  0  0  0  0  0  0  0  0  0  0
    0.7145   -5.3625    0.0000 C   0  0  0  0  0  0  0  0  0  0  0  0
    1.4289   -5.7750    0.0000 C   0  0  0  0  0  0  0  0  0  0  0  0
    1.4289   -6.6000    0.0000 C   0  0  0  0  0  0  0  0  0  0  0  0
    0.7145   -7.0125    0.0000 C   0  0  0  0  0  0  0  0  0  0  0  0
    0.7145   -7.8375    0.0000 N   0  0  0  0  0  0  0  0  0  0  0  0
   -0.0000   -6.6000    0.0000 C   0  0  0  0  0  0  0  0  0  0  0  0
   -0.0000   -5.7750    0.0000 C   0  0  0  0  0  0  0  0  0  0  0  0
  1  2  1  0  0  0  0
  2  3  4  0  0  0  0
  3  4  4  0  0  0  0
  4  5  4  0  0  0  0
  5  6  4  0  0  0  0
  6  7  4  0  0  0  0
  2  7  4  0  0  0  0
  5  8  1  0  0  0  0
  8  9  2  0  0  0  0
  8 10  2  0  0  0  0
  8 11  1  0  0  0  0
 11 12  4  0  0  0  0
 12 13  4  0  0  0  0
 13 14  4  0  0  0  0
 14 15  1  0  0  0  0
 14 16  4  0  0  0  0
 16 17  4  0  0  0  0
 11 17  4  0  0  0  0
M  END

> <ChembankId>
1186

> <SMILES>
Nc1ccc(cc1)S(=O)(=O)c2ccc(N)cc2

> <InChI>
1/C12H12N2O2S/c13-9-1-5-11(6-2-9)17(15,16)12-7-3-10(14)4-8-12/h1-8H,13-14H2

$$$$
878
  Marvin  11101114192D          

 14 14  0  0  0  0            999 V2000
    1.4289   -3.3000    0.0000 C   0  0  0  0  0  0  0  0  0  0  0  0
    1.4289   -2.4750    0.0000 C   0  0  0  0  0  0  0  0  0  0  0  0
    2.1434   -2.0625    0.0000 O   0  0  0  0  0  0  0  0  0  0  0  0
    0.7145   -2.0625    0.0000 N   0  0  0  0  0  0  0  0  0  0  0  0
    0.7145   -1.2375    0.0000 S   0  0  0  0  0  0  0  0  0  0  0  0
    1.5395   -1.2375    0.0000 O   0  0  0  0  0  0  0  0  0  0  0  0
   -0.1105   -1.2375    0.0000 O   0  0  0  0  0  0  0  0  0  0  0  0
    0.7145   -0.4125    0.0000 C   0  0  0  0  0  0  0  0  0  0  0  0
   -0.0000    0.0000    0.0000 C   0  0  0  0  0  0  0  0  0  0  0  0
    0.0000    0.8250    0.0000 C   0  0  0  0  0  0  0  0  0  0  0  0
    0.7145    1.2375    0.0000 C   0  0  0  0  0  0  0  0  0  0  0  0
    0.7145    2.0625    0.0000 N   0  0  0  0  0  0  0  0  0  0  0  0
    1.4289    0.8250    0.0000 C   0  0  0  0  0  0  0  0  0  0  0  0
    1.4289    0.0000    0.0000 C   0  0  0  0  0  0  0  0  0  0  0  0
  1  2  1  0  0  0  0
  2  3  2  0  0  0  0
  2  4  1  0  0  0  0
  4  5  1  0  0  0  0
  5  6  2  0  0  0  0
  5  7  2  0  0  0  0
  5  8  1  0  0  0  0
  8  9  4  0  0  0  0
  9 10  4  0  0  0  0
 10 11  4  0  0  0  0
 11 12  1  0  0  0  0
 11 13  4  0  0  0  0
 13 14  4  0  0  0  0
  8 14  4  0  0  0  0
M  END

> <ChembankId>
878

> <SMILES>
CC(=O)NS(=O)(=O)c1ccc(N)cc1

> <InChI>
1/C8H10N2O3S/c1-6(11)10-14(12,13)8-4-2-7(9)3-5-8/h2-5H,9H2,1H3,(H,10,11)

$$$$
1921660
  Marvin  11101114192D          

 16 18  0  0  0  0            999 V2000
    4.0668    2.3479    0.0000 Cl  0  0  0  0  0  0  0  0  0  0  0  0
    3.3523    1.9354    0.0000 C   0  0  0  0  0  0  0  0  0  0  0  0
    3.3523    1.1104    0.0000 C   0  0  0  0  0  0  0  0  0  0  0  0
    2.6378    0.6979    0.0000 C   0  0  0  0  0  0  0  0  0  0  0  0
    1.9233    1.1104    0.0000 C   0  0  0  0  0  0  0  0  0  0  0  0
    1.1387    0.8555    0.0000 N   0  0  0  0  0  0  0  0  0  0  0  0
    0.6538    1.5229    0.0000 N   0  0  0  0  0  0  0  0  0  0  0  0
    1.1387    2.1904    0.0000 C   0  0  0  0  0  0  0  0  0  0  0  0
    0.8838    2.9750    0.0000 C   0  0  0  0  0  0  0  0  0  0  0  0
    0.0768    3.1465    0.0000 C   0  0  0  0  0  0  0  0  0  0  0  0
   -0.1781    3.9312    0.0000 C   0  0  0  0  0  0  0  0  0  0  0  0
    0.3739    4.5442    0.0000 C   0  0  0  0  0  0  0  0  0  0  0  0
    1.1809    4.3727    0.0000 C   0  0  0  0  0  0  0  0  0  0  0  0
    1.4358    3.5881    0.0000 C   0  0  0  0  0  0  0  0  0  0  0  0
    1.9233    1.9354    0.0000 N   0  0  0  0  0  0  0  0  0  0  0  0
    2.6378    2.3479    0.0000 N   0  0  0  0  0  0  0  0  0  0  0  0
  1  2  1  0  0  0  0
  2  3  4  0  0  0  0
  3  4  4  0  0  0  0
  4  5  4  0  0  0  0
  5  6  4  0  0  0  0
  6  7  4  0  0  0  0
  7  8  4  0  0  0  0
  8  9  1  0  0  0  0
  9 10  4  0  0  0  0
 10 11  4  0  0  0  0
 11 12  4  0  0  0  0
 12 13  4  0  0  0  0
 13 14  4  0  0  0  0
  9 14  4  0  0  0  0
  8 15  4  0  0  0  0
  5 15  4  0  0  0  0
 15 16  4  0  0  0  0
  2 16  4  0  0  0  0
M  END

> <ChembankId>
1921660

> <SMILES>
Clc1ccc2nnc(c3ccccc3)n2n1

> <InChI>
1/C11H7ClN4/c12-9-6-7-10-13-14-11(16(10)15-9)8-4-2-1-3-5-8/h1-7H

$$$$
2709
  Marvin  11101114192D          

 12 12  0  0  0  0            999 V2000
    2.1434    1.2375    0.0000 C   0  0  0  0  0  0  0  0  0  0  0  0
    1.4289    0.8250    0.0000 C   0  0  0  0  0  0  0  0  0  0  0  0
    1.4289   -0.0000    0.0000 N   0  0  0  0  0  0  0  0  0  0  0  0
    0.7145   -0.4125    0.0000 C   0  0  0  0  0  0  0  0  0  0  0  0
    0.0000    0.0000    0.0000 C   0  0  0  0  0  0  0  0  0  0  0  0
   -0.7145   -0.4125    0.0000 C   0  0  0  0  0  0  0  0  0  0  0  0
   -0.7145   -1.2375    0.0000 O   0  0  0  0  0  0  0  0  0  0  0  0
    0.0000    0.8250    0.0000 C   0  0  0  0  0  0  0  0  0  0  0  0
   -0.7145    1.2375    0.0000 C   0  0  0  0  0  0  0  0  0  0  0  0
   -0.7145    2.0625    0.0000 O   0  0  0  0  0  0  0  0  0  0  0  0
    0.7145    1.2375    0.0000 C   0  0  0  0  0  0  0  0  0  0  0  0
    0.7145    2.0625    0.0000 O   0  0  0  0  0  0  0  0  0  0  0  0
  1  2  1  0  0  0  0
  2  3  4  0  0  0  0
  3  4  4  0  0  0  0
  4  5  4  0  0  0  0
  5  6  1  0  0  0  0
  6  7  1  0  0  0  0
  5  8  4  0  0  0  0
  8  9  1  0  0  0  0
  9 10  1  0  0  0  0
  8 11  4  0  0  0  0
  2 11  4  0  0  0  0
 11 12  1  0  0  0  0
M  END

> <ChembankId>
2709

> <SMILES>
Cc1ncc(CO)c(CO)c1O

> <InChI>
1/C8H11NO3/c1-5-8(12)7(4-11)6(3-10)2-9-5/h2,10-12H,3-4H2,1H3

$$$$
1470918
  Marvin  11101114192D          

 21 22  0  0  0  0            999 V2000
   -2.1434   -2.8875    0.0000 C   0  0  0  0  0  0  0  0  0  0  0  0
   -1.4289   -2.4750    0.0000 C   0  0  0  0  0  0  0  0  0  0  0  0
   -1.4289   -1.6500    0.0000 C   0  0  0  0  0  0  0  0  0  0  0  0
   -0.7145   -1.2375    0.0000 C   0  0  0  0  0  0  0  0  0  0  0  0
   -0.7145   -0.4125    0.0000 C   0  0  0  0  0  0  0  0  0  0  0  0
    0.0000   -1.6500    0.0000 C   0  0  0  0  0  0  0  0  0  0  0  0
    0.0000   -2.4750    0.0000 C   0  0  0  0  0  0  0  0  0  0  0  0
    0.7145   -2.8875    0.0000 N   0  0  0  0  0  0  0  0  0  0  0  0
    1.4289   -2.4750    0.0000 C   0  0  0  0  0  0  0  0  0  0  0  0
    2.1434   -2.8875    0.0000 C   0  0  0  0  0  0  0  0  0  0  0  0
    2.1434   -3.7125    0.0000 O   0  0  0  0  0  0  0  0  0  0  0  0
    2.8579   -2.4750    0.0000 N   0  0  0  0  0  0  0  0  0  0  0  0
    3.5724   -2.8875    0.0000 C   0  0  0  0  0  0  0  0  0  0  0  0
    4.2868   -2.4750    0.0000 C   0  0  0  0  0  0  0  0  0  0  0  0
    4.2868   -1.6500    0.0000 C   0  0  0  0  0  0  0  0  0  0  0  0
    5.0013   -2.8875    0.0000 C   0  0  0  0  0  0  0  0  0  0  0  0
    5.0013   -3.7125    0.0000 C   0  0  0  0  0  0  0  0  0  0  0  0
    4.2868   -4.1250    0.0000 C   0  0  0  0  0  0  0  0  0  0  0  0
    3.5724   -3.7125    0.0000 C   0  0  0  0  0  0  0  0  0  0  0  0
    2.8579   -4.1250    0.0000 C   0  0  0  0  0  0  0  0  0  0  0  0
   -0.7145   -2.8875    0.0000 C   0  0  0  0  0  0  0  0  0  0  0  0
  1  2  1  0  0  0  0
  2  3  4  0  0  0  0
  3  4  4  0  0  0  0
  4  5  1  0  0  0  0
  4  6  4  0  0  0  0
  6  7  4  0  0  0  0
  7  8  1  0  0  0  0
  8  9  1  0  0  0  0
  9 10  1  0  0  0  0
 10 11  2  0  0  0  0
 10 12  1  0  0  0  0
 12 13  1  0  0  0  0
 13 14  4  0  0  0  0
 14 15  1  0  0  0  0
 14 16  4  0  0  0  0
 16 17  4  0  0  0  0
 17 18  4  0  0  0  0
 18 19  4  0  0  0  0
 13 19  4  0  0  0  0
 19 20  1  0  0  0  0
  7 21  4  0  0  0  0
  2 21  4  0  0  0  0
M  END

> <ChembankId>
1470918

> <SMILES>
Cc1cc(C)cc(NCC(=O)Nc2c(C)cccc2C)c1

> <InChI>
1/C18H22N2O/c1-12-8-13(2)10-16(9-12)19-11-17(21)20-18-14(3)6-5-7-15(18)4/h5-10,19H,11H2,1-4H3,(H,20,21)

$$$$
1231
  Marvin  11101114192D          

 12 11  0  0  1  0            999 V2000
    1.7605    1.8414    0.0000 C   0  0  0  0  0  0  0  0  0  0  0  0
    2.4750    1.4289    0.0000 C   0  0  0  0  0  0  0  0  0  0  0  0
    2.4750    0.6039    0.0000 C   0  0  0  0  0  0  0  0  0  0  0  0
    3.1895    1.8414    0.0000 C   0  0  0  0  0  0  0  0  0  0  0  0
    3.9039    1.4289    0.0000 C   0  0  2  0  0  0  0  0  0  0  0  0
    4.6184    1.8414    0.0000 N   0  0  0  0  0  0  0  0  0  0  0  0
    5.3329    1.4289    0.0000 C   0  0  0  0  0  0  0  0  0  0  0  0
    6.0474    1.8414    0.0000 O   0  0  0  0  0  0  0  0  0  0  0  0
    5.3329    0.6039    0.0000 C   0  0  0  0  0  0  0  0  0  0  0  0
    3.9039    0.6039    0.0000 C   0  0  0  0  0  0  0  0  0  0  0  0
    4.6184    0.1914    0.0000 O   0  0  0  0  0  0  0  0  0  0  0  0
    3.1895    0.1914    0.0000 O   0  0  0  0  0  0  0  0  0  0  0  0
  1  2  1  0  0  0  0
  2  3  1  0  0  0  0
  2  4  1  0  0  0  0
  4  5  1  0  0  0  0
  5  6  1  6  0  0  0
  6  7  1  0  0  0  0
  7  8  2  0  0  0  0
  7  9  1  0  0  0  0
  5 10  1  0  0  0  0
 10 11  2  0  0  0  0
 10 12  1  0  0  0  0
M  END

> <ChembankId>
1231

> <SMILES>
CC(C)C[C@H](NC(=O)C)C(=O)O

> <InChI>
1/C8H15NO3/c1-5(2)4-7(8(11)12)9-6(3)10/h5,7H,4H2,1-3H3,(H,9,10)(H,11,12)

$$$$
1931603
  Marvin  11101114192D          

 20 21  0  0  0  0            999 V2000
    3.5724   11.7161    0.0000 O   0  0  0  0  0  0  0  0  0  0  0  0
    3.5724   10.8911    0.0000 C   0  0  0  0  0  0  0  0  0  0  0  0
    4.2868   10.4786    0.0000 C   0  0  0  0  0  0  0  0  0  0  0  0
    4.2868    9.6536    0.0000 C   0  0  0  0  0  0  0  0  0  0  0  0
    3.5724    9.2411    0.0000 C   0  0  0  0  0  0  0  0  0  0  0  0
    2.8579    9.6536    0.0000 C   0  0  0  0  0  0  0  0  0  0  0  0
    2.8579   10.4786    0.0000 C   0  0  0  0  0  0  0  0  0  0  0  0
    3.5724    8.4161    0.0000 C   0  0  0  0  0  0  0  0  0  0  0  0
    4.2868    8.0036    0.0000 O   0  0  0  0  0  0  0  0  0  0  0  0
    2.8579    8.0036    0.0000 N   0  0  0  0  0  0  0  0  0  0  0  0
    2.8579    7.1786    0.0000 N   0  0  0  0  0  0  0  0  0  0  0  0
    2.1434    6.7661    0.0000 C   0  0  0  0  0  0  0  0  0  0  0  0
    2.1434    5.9411    0.0000 C   0  0  0  0  0  0  0  0  0  0  0  0
    2.8109    5.4562    0.0000 C   0  0  0  0  0  0  0  0  0  0  0  0
    2.5559    4.6715    0.0000 C   0  0  0  0  0  0  0  0  0  0  0  0
    1.7309    4.6715    0.0000 C   0  0  0  0  0  0  0  0  0  0  0  0
    1.4760    5.4562    0.0000 O   0  0  0  0  0  0  0  0  0  0  0  0
    1.2460    4.0041    0.0000 N   0  3  0  0  0  0  0  0  0  0  0  0
    1.5815    3.2504    0.0000 O   0  0  0  0  0  0  0  0  0  0  0  0
    0.4255    4.0903    0.0000 O   0  5  0  0  0  0  0  0  0  0  0  0
  1  2  1  0  0  0  0
  2  3  4  0  0  0  0
  3  4  4  0  0  0  0
  4  5  4  0  0  0  0
  5  6  4  0  0  0  0
  6  7  4  0  0  0  0
  2  7  4  0  0  0  0
  5  8  1  0  0  0  0
  8  9  2  0  0  0  0
  8 10  1  0  0  0  0
 10 11  1  0  0  0  0
 11 12  2  0  0  0  0
 12 13  1  0  0  0  0
 13 14  4  0  0  0  0
 14 15  4  0  0  0  0
 15 16  4  0  0  0  0
 16 17  4  0  0  0  0
 13 17  4  0  0  0  0
 16 18  1  0  0  0  0
 18 19  2  0  0  0  0
 18 20  1  0  0  0  0
M  CHG  2  18   1  20  -1
M  END

> <ChembankId>
1931603

> <SMILES>
Oc1ccc(cc1)C(=O)N/N=C/c2ccc(o2)[N+](=O)[O-]

> <InChI>
1/C12H9N3O5/c16-9-3-1-8(2-4-9)12(17)14-13-7-10-5-6-11(20-10)15(18)19/h1-7,16H,(H,14,17)

$$$$
1019
  Marvin  11101114192D          

 18 20  0  0  0  0            999 V2000
    3.0892    1.5695    0.0000 N   0  0  0  0  0  0  0  0  0  0  0  0
    3.8037    1.1570    0.0000 C   0  0  0  0  0  0  0  0  0  0  0  0
    4.5181    1.5695    0.0000 O   0  0  0  0  0  0  0  0  0  0  0  0
    3.8037    0.3320    0.0000 N   0  0  0  0  0  0  0  0  0  0  0  0
    4.5470   -0.0260    0.0000 C   0  0  0  0  0  0  0  0  0  0  0  0
    5.1517    0.5352    0.0000 C   0  0  0  0  0  0  0  0  0  0  0  0
    5.9401    0.2920    0.0000 C   0  0  0  0  0  0  0  0  0  0  0  0
    6.1237   -0.5123    0.0000 C   0  0  0  0  0  0  0  0  0  0  0  0
    5.5189   -1.0735    0.0000 C   0  0  0  0  0  0  0  0  0  0  0  0
    4.7305   -0.8303    0.0000 C   0  0  0  0  0  0  0  0  0  0  0  0
    4.2162   -1.4753    0.0000 C   0  0  0  0  0  0  0  0  0  0  0  0
    3.3912   -1.4753    0.0000 C   0  0  0  0  0  0  0  0  0  0  0  0
    2.8768   -0.8303    0.0000 C   0  0  0  0  0  0  0  0  0  0  0  0
    2.0884   -1.0735    0.0000 C   0  0  0  0  0  0  0  0  0  0  0  0
    1.4837   -0.5123    0.0000 C   0  0  0  0  0  0  0  0  0  0  0  0
    1.6673    0.2920    0.0000 C   0  0  0  0  0  0  0  0  0  0  0  0
    2.4556    0.5352    0.0000 C   0  0  0  0  0  0  0  0  0  0  0  0
    3.0604   -0.0260    0.0000 C   0  0  0  0  0  0  0  0  0  0  0  0
  1  2  1  0  0  0  0
  2  3  2  0  0  0  0
  2  4  1  0  0  0  0
  4  5  1  0  0  0  0
  5  6  4  0  0  0  0
  6  7  4  0  0  0  0
  7  8  4  0  0  0  0
  8  9  4  0  0  0  0
  9 10  4  0  0  0  0
  5 10  4  0  0  0  0
 10 11  1  0  0  0  0
 11 12  2  0  0  0  0
 12 13  1  0  0  0  0
 13 14  4  0  0  0  0
 14 15  4  0  0  0  0
 15 16  4  0  0  0  0
 16 17  4  0  0  0  0
 17 18  4  0  0  0  0
  4 18  1  0  0  0  0
 13 18  4  0  0  0  0
M  END

> <ChembankId>
1019

> <SMILES>
NC(=O)N1c2ccccc2C=Cc3ccccc13

> <InChI>
1/C15H12N2O/c16-15(18)17-13-7-3-1-5-11(13)9-10-12-6-2-4-8-14(12)17/h1-10H,(H2,16,18)

$$$$
733
  Marvin  11101114192D          

 13 15  0  0  0  0            999 V2000
    0.8517   -2.4835    0.0000 C   0  0  0  0  0  0  0  0  0  0  0  0
    0.8517   -1.6585    0.0000 C   0  0  0  0  0  0  0  0  0  0  0  0
    0.8517   -0.9111    0.0000 C   0  0  0  0  0  0  0  0  0  0  0  0
    1.3012   -0.1208    0.0000 C   0  0  0  0  0  0  0  0  0  0  0  0
    0.5657   -0.4945    0.0000 C   0  0  0  0  0  0  0  0  0  0  0  0
    0.5657   -1.2419    0.0000 C   0  0  0  0  0  0  0  0  0  0  0  0
   -0.2319   -1.0310    0.0000 C   0  0  0  0  0  0  0  0  0  0  0  0
    0.1163   -2.0322    0.0000 C   0  0  0  0  0  0  0  0  0  0  0  0
    1.5873   -2.0322    0.0000 C   0  0  0  0  0  0  0  0  0  0  0  0
    2.0368   -1.2419    0.0000 C   0  0  0  0  0  0  0  0  0  0  0  0
    2.8344   -1.4529    0.0000 N   0  0  0  0  0  0  0  0  0  0  0  0
    2.0368   -0.4945    0.0000 C   0  0  0  0  0  0  0  0  0  0  0  0
    1.3012   -1.6156    0.0000 C   0  0  0  0  0  0  0  0  0  0  0  0
  1  2  1  0  0  0  0
  6 13  1  0  0  0  0
  3  4  1  0  0  0  0
  4  5  1  0  0  0  0
 10 13  1  0  0  0  0
  6  7  1  0  0  0  0
  6  8  1  0  0  0  0
  2  8  1  0  0  0  0
  2  9  1  0  0  0  0
  9 10  1  0  0  0  0
 10 11  1  0  0  0  0
  4 12  1  0  0  0  0
 10 12  1  0  0  0  0
  5  6  1  0  0  0  0
  2  3  1  0  0  0  0
M  END

> <ChembankId>
733

> <SMILES>
CC1(CC2CC3(C)C1)CC(N)(C2)C3

> <InChI>
1/C12H21N/c1-10-3-9-4-11(2,6-10)8-12(13,5-9)7-10/h9H,3-8,13H2,1-2H3

$$$$
938
  Marvin  11101114192D          

 21 23  0  0  0  0            999 V2000
    0.8212    1.1759    0.0000 C   0  0  0  0  0  0  0  0  0  0  0  0
    0.1067    0.7634    0.0000 C   0  0  0  0  0  0  0  0  0  0  0  0
    0.1067   -0.0616    0.0000 C   0  0  0  0  0  0  0  0  0  0  0  0
   -0.6078   -0.4741    0.0000 C   0  0  0  0  0  0  0  0  0  0  0  0
   -1.3222   -0.0616    0.0000 C   0  0  0  0  0  0  0  0  0  0  0  0
   -1.3222    0.7634    0.0000 C   0  0  0  0  0  0  0  0  0  0  0  0
   -0.6078    1.1759    0.0000 C   0  0  0  0  0  0  0  0  0  0  0  0
   -2.0367   -0.4741    0.0000 C   0  0  0  0  0  0  0  0  0  0  0  0
   -2.0367   -1.2991    0.0000 C   0  0  0  0  0  0  0  0  0  0  0  0
   -1.3222   -1.7116    0.0000 C   0  0  0  0  0  0  0  0  0  0  0  0
   -1.3222   -2.5366    0.0000 N   0  0  0  0  0  0  0  0  0  0  0  0
   -0.6548   -3.0215    0.0000 C   0  0  0  0  0  0  0  0  0  0  0  0
   -0.9097   -3.8062    0.0000 C   0  0  0  0  0  0  0  0  0  0  0  0
   -1.7347   -3.8062    0.0000 C   0  0  0  0  0  0  0  0  0  0  0  0
   -1.9897   -3.0215    0.0000 C   0  0  0  0  0  0  0  0  0  0  0  0
   -2.7512   -0.0616    0.0000 C   0  0  0  0  0  0  0  0  0  0  0  0
   -3.4656   -0.4741    0.0000 C   0  0  0  0  0  0  0  0  0  0  0  0
   -4.1801   -0.0616    0.0000 C   0  0  0  0  0  0  0  0  0  0  0  0
   -4.1801    0.7634    0.0000 C   0  0  0  0  0  0  0  0  0  0  0  0
   -3.4656    1.1759    0.0000 C   0  0  0  0  0  0  0  0  0  0  0  0
   -2.7512    0.7634    0.0000 N   0  0  0  0  0  0  0  0  0  0  0  0
  1  2  1  0  0  0  0
  2  3  4  0  0  0  0
  3  4  4  0  0  0  0
  4  5  4  0  0  0  0
  5  6  4  0  0  0  0
  6  7  4  0  0  0  0
  2  7  4  0  0  0  0
  5  8  1  0  0  0  0
  8  9  2  0  0  0  0
  9 10  1  0  0  0  0
 10 11  1  0  0  0  0
 11 12  1  0  0  0  0
 12 13  1  0  0  0  0
 13 14  1  0  0  0  0
 14 15  1  0  0  0  0
 11 15  1  0  0  0  0
  8 16  1  0  0  0  0
 16 17  4  0  0  0  0
 17 18  4  0  0  0  0
 18 19  4  0  0  0  0
 19 20  4  0  0  0  0
 20 21  4  0  0  0  0
 16 21  4  0  0  0  0
M  END

> <ChembankId>
938

> <SMILES>
Cc1ccc(cc1)/C(=C\CN2CCCC2)/c3ccccn3

> <InChI>
1/C19H22N2/c1-16-7-9-17(10-8-16)18(19-6-2-3-12-20-19)11-15-21-13-4-5-14-21/h2-3,6-12H,4-5,13-15H2,1H3

$$$$
1130
  Marvin  11101114192D          

 30 33  0  0  0  0            999 V2000
    6.4302    6.1875    0.0000 O   0  0  0  0  0  0  0  0  0  0  0  0
    5.7158    5.7750    0.0000 C   0  0  0  0  0  0  0  0  0  0  0  0
    5.7158    4.9500    0.0000 C   0  0  0  0  0  0  0  0  0  0  0  0
    5.0013    4.5375    0.0000 N   0  0  0  0  0  0  0  0  0  0  0  0
    5.0013    3.7125    0.0000 C   0  0  0  0  0  0  0  0  0  0  0  0
    4.2868    3.3000    0.0000 C   0  0  0  0  0  0  0  0  0  0  0  0
    3.5724    3.7125    0.0000 N   0  0  0  0  0  0  0  0  0  0  0  0
    2.8579    3.3000    0.0000 C   0  0  0  0  0  0  0  0  0  0  0  0
    2.8579    2.4750    0.0000 C   0  0  0  0  0  0  0  0  0  0  0  0
    2.1434    2.0625    0.0000 C   0  0  0  0  0  0  0  0  0  0  0  0
    2.1434    1.2375    0.0000 N   0  0  0  0  0  0  0  0  0  0  0  0
    2.8579    0.8250    0.0000 C   0  0  0  0  0  0  0  0  0  0  0  0
    3.5724    1.2375    0.0000 C   0  0  0  0  0  0  0  0  0  0  0  0
    4.2868    0.8250    0.0000 C   0  0  0  0  0  0  0  0  0  0  0  0
    4.2868   -0.0000    0.0000 C   0  0  0  0  0  0  0  0  0  0  0  0
    3.5724   -0.4125    0.0000 C   0  0  0  0  0  0  0  0  0  0  0  0
    2.8579    0.0000    0.0000 C   0  0  0  0  0  0  0  0  0  0  0  0
    2.1434   -0.4125    0.0000 S   0  0  0  0  0  0  0  0  0  0  0  0
    1.4289    0.0000    0.0000 C   0  0  0  0  0  0  0  0  0  0  0  0
    0.7145   -0.4125    0.0000 C   0  0  0  0  0  0  0  0  0  0  0  0
    0.0000    0.0000    0.0000 C   0  0  0  0  0  0  0  0  0  0  0  0
    0.0000    0.8250    0.0000 C   0  0  0  0  0  0  0  0  0  0  0  0
    0.7145    1.2375    0.0000 C   0  0  0  0  0  0  0  0  0  0  0  0
    1.4289    0.8250    0.0000 C   0  0  0  0  0  0  0  0  0  0  0  0
   -0.7145    1.2375    0.0000 C   0  0  0  0  0  0  0  0  0  0  0  0
   -1.4289    1.6500    0.0000 F   0  0  0  0  0  0  0  0  0  0  0  0
   -0.3020    1.9520    0.0000 F   0  0  0  0  0  0  0  0  0  0  0  0
   -1.1270    0.5230    0.0000 F   0  0  0  0  0  0  0  0  0  0  0  0
    3.5724    4.5375    0.0000 C   0  0  0  0  0  0  0  0  0  0  0  0
    4.2868    4.9500    0.0000 C   0  0  0  0  0  0  0  0  0  0  0  0
  1  2  1  0  0  0  0
  2  3  1  0  0  0  0
  3  4  1  0  0  0  0
  4  5  1  0  0  0  0
  5  6  1  0  0  0  0
  6  7  1  0  0  0  0
  7  8  1  0  0  0  0
  8  9  1  0  0  0  0
  9 10  1  0  0  0  0
 10 11  1  0  0  0  0
 11 12  1  0  0  0  0
 12 13  4  0  0  0  0
 13 14  4  0  0  0  0
 14 15  4  0  0  0  0
 15 16  4  0  0  0  0
 16 17  4  0  0  0  0
 12 17  4  0  0  0  0
 17 18  1  0  0  0  0
 18 19  1  0  0  0  0
 19 20  4  0  0  0  0
 20 21  4  0  0  0  0
 21 22  4  0  0  0  0
 22 23  4  0  0  0  0
 23 24  4  0  0  0  0
 11 24  1  0  0  0  0
 19 24  4  0  0  0  0
 22 25  1  0  0  0  0
 25 26  1  0  0  0  0
 25 27  1  0  0  0  0
 25 28  1  0  0  0  0
  7 29  1  0  0  0  0
 29 30  1  0  0  0  0
  4 30  1  0  0  0  0
M  END

> <ChembankId>
1130

> <SMILES>
OCCN1CCN(CCCN2c3ccccc3Sc4ccc(cc24)C(F)(F)F)CC1

> <InChI>
1/C22H26F3N3OS/c23-22(24,25)17-6-7-21-19(16-17)28(18-4-1-2-5-20(18)30-21)9-3-8-26-10-12-27(13-11-26)14-15-29/h1-2,4-7,16,29H,3,8-15H2

$$$$
961
  Marvin  11101114192D          

 30 34  0  0  1  0            999 V2000
   -0.6397   -5.5838    0.0000 C   0  0  0  0  0  0  0  0  0  0  0  0
   -0.8946   -4.7992    0.0000 O   0  0  0  0  0  0  0  0  0  0  0  0
   -0.3426   -4.1861    0.0000 C   0  0  0  0  0  0  0  0  0  0  0  0
   -0.5975   -3.4015    0.0000 C   0  0  0  0  0  0  0  0  0  0  0  0
   -0.0455   -2.7884    0.0000 C   0  0  0  0  0  0  0  0  0  0  0  0
    0.7615   -2.9599    0.0000 C   0  0  0  0  0  0  0  0  0  0  0  0
    1.4289   -2.4750    0.0000 C   0  0  0  0  0  0  0  0  0  0  0  0
    2.0964   -2.9599    0.0000 O   0  0  0  0  0  0  0  0  0  0  0  0
    1.8414   -3.7445    0.0000 C   0  0  0  0  0  0  0  0  0  0  0  0
    2.3264   -4.4120    0.0000 O   0  0  0  0  0  0  0  0  0  0  0  0
    1.0164   -3.7445    0.0000 C   0  0  0  0  0  0  0  0  0  0  0  0
    0.4644   -4.3576    0.0000 C   0  0  0  0  0  0  0  0  0  0  0  0
    0.7193   -5.1423    0.0000 O   0  0  0  0  0  0  0  0  0  0  0  0
    0.1673   -5.7554    0.0000 C   0  0  0  0  0  0  0  0  0  0  0  0
    1.4289   -1.6500    0.0000 C   0  0  2  0  0  0  0  0  0  0  0  0
    0.7145   -1.2375    0.0000 N   0  0  0  0  0  0  0  0  0  0  0  0
    0.0000   -1.6500    0.0000 C   0  0  0  0  0  0  0  0  0  0  0  0
    0.7145   -0.4125    0.0000 C   0  0  0  0  0  0  0  0  0  0  0  0
    1.4289    0.0000    0.0000 C   0  0  0  0  0  0  0  0  0  0  0  0
    2.1434   -0.4125    0.0000 C   0  0  0  0  0  0  0  0  0  0  0  0
    2.8579    0.0000    0.0000 C   0  0  0  0  0  0  0  0  0  0  0  0
    3.5724   -0.4125    0.0000 C   0  0  0  0  0  0  0  0  0  0  0  0
    4.3570   -0.1576    0.0000 O   0  0  0  0  0  0  0  0  0  0  0  0
    4.8419   -0.8250    0.0000 C   0  0  0  0  0  0  0  0  0  0  0  0
    4.3570   -1.4924    0.0000 O   0  0  0  0  0  0  0  0  0  0  0  0
    3.5724   -1.2375    0.0000 C   0  0  0  0  0  0  0  0  0  0  0  0
    2.8579   -1.6500    0.0000 C   0  0  0  0  0  0  0  0  0  0  0  0
    2.8579   -2.4750    0.0000 O   0  0  0  0  0  0  0  0  0  0  0  0
    3.5724   -2.8875    0.0000 C   0  0  0  0  0  0  0  0  0  0  0  0
    2.1434   -1.2375    0.0000 C   0  0  0  0  0  0  0  0  0  0  0  0
  1  2  1  0  0  0  0
  2  3  1  0  0  0  0
  3  4  4  0  0  0  0
  4  5  4  0  0  0  0
  5  6  4  0  0  0  0
  6  7  1  0  0  0  0
  7  8  1  0  0  0  0
  8  9  1  0  0  0  0
  9 10  2  0  0  0  0
  9 11  1  0  0  0  0
  6 11  4  0  0  0  0
 11 12  4  0  0  0  0
  3 12  4  0  0  0  0
 12 13  1  0  0  0  0
 13 14  1  0  0  0  0
 15  7  1  6  0  0  0
 15 16  1  0  0  0  0
 16 17  1  0  0  0  0
 16 18  1  0  0  0  0
 18 19  1  0  0  0  0
 19 20  1  0  0  0  0
 20 21  4  0  0  0  0
 21 22  4  0  0  0  0
 22 23  1  0  0  0  0
 23 24  1  0  0  0  0
 24 25  1  0  0  0  0
 25 26  1  0  0  0  0
 22 26  4  0  0  0  0
 26 27  4  0  0  0  0
 27 28  1  0  0  0  0
 28 29  1  0  0  0  0
 27 30  4  0  0  0  0
 15 30  1  0  0  0  0
 20 30  4  0  0  0  0
M  END

> <ChembankId>
961

> <SMILES>
COc1ccc2[C@H](OC(=O)c2c1OC)[C@@H]3N(C)CCc4cc5OCOc5c(OC)c34

> <InChI>
1/C22H23NO7/c1-23-8-7-11-9-14-20(29-10-28-14)21(27-4)15(11)17(23)18-12-5-6-13(25-2)19(26-3)16(12)22(24)30-18/h5-6,9,17-18H,7-8,10H2,1-4H3

$$$$
757
  Marvin  11101114192D          

 24 27  0  0  0  0            999 V2000
    0.0000   -2.4750    0.0000 O   0  0  0  0  0  0  0  0  0  0  0  0
    0.0000   -1.6500    0.0000 C   0  0  0  0  0  0  0  0  0  0  0  0
   -0.7145   -1.2375    0.0000 O   0  0  0  0  0  0  0  0  0  0  0  0
    0.7145   -1.2375    0.0000 C   0  0  0  0  0  0  0  0  0  0  0  0
    0.7145   -0.4125    0.0000 C   0  0  0  0  0  0  0  0  0  0  0  0
    1.4289    0.0000    0.0000 N   0  0  0  0  0  0  0  0  0  0  0  0
    1.4289    0.8250    0.0000 C   0  0  0  0  0  0  0  0  0  0  0  0
    1.0164    1.5395    0.0000 C   0  0  0  0  0  0  0  0  0  0  0  0
    1.8414    1.5395    0.0000 C   0  0  0  0  0  0  0  0  0  0  0  0
    2.1434   -0.4125    0.0000 C   0  0  0  0  0  0  0  0  0  0  0  0
    2.8579    0.0000    0.0000 C   0  0  0  0  0  0  0  0  0  0  0  0
    3.5724   -0.4125    0.0000 C   0  0  0  0  0  0  0  0  0  0  0  0
    4.2868   -0.0000    0.0000 N   0  0  0  0  0  0  0  0  0  0  0  0
    4.2868    0.8250    0.0000 C   0  0  0  0  0  0  0  0  0  0  0  0
    5.0013    1.2375    0.0000 C   0  0  0  0  0  0  0  0  0  0  0  0
    5.7158    0.8250    0.0000 N   0  0  0  0  0  0  0  0  0  0  0  0
    5.7158   -0.0000    0.0000 C   0  0  0  0  0  0  0  0  0  0  0  0
    5.0013   -0.4125    0.0000 C   0  0  0  0  0  0  0  0  0  0  0  0
    3.5724   -1.2375    0.0000 C   0  0  0  0  0  0  0  0  0  0  0  0
    4.2868   -1.6500    0.0000 F   0  0  0  0  0  0  0  0  0  0  0  0
    2.8579   -1.6500    0.0000 C   0  0  0  0  0  0  0  0  0  0  0  0
    2.1434   -1.2375    0.0000 C   0  0  0  0  0  0  0  0  0  0  0  0
    1.4289   -1.6500    0.0000 C   0  0  0  0  0  0  0  0  0  0  0  0
    1.4289   -2.4750    0.0000 O   0  0  0  0  0  0  0  0  0  0  0  0
  1  2  1  0  0  0  0
  2  3  2  0  0  0  0
  2  4  1  0  0  0  0
  4  5  4  0  0  0  0
  5  6  4  0  0  0  0
  6  7  1  0  0  0  0
  7  8  1  0  0  0  0
  8  9  1  0  0  0  0
  7  9  1  0  0  0  0
  6 10  4  0  0  0  0
 10 11  4  0  0  0  0
 11 12  4  0  0  0  0
 12 13  1  0  0  0  0
 13 14  1  0  0  0  0
 14 15  1  0  0  0  0
 15 16  1  0  0  0  0
 16 17  1  0  0  0  0
 17 18  1  0  0  0  0
 13 18  1  0  0  0  0
 12 19  4  0  0  0  0
 19 20  1  0  0  0  0
 19 21  4  0  0  0  0
 21 22  4  0  0  0  0
 10 22  4  0  0  0  0
 22 23  4  0  0  0  0
  4 23  4  0  0  0  0
 23 24  2  0  0  0  0
M  END

> <ChembankId>
757

> <SMILES>
OC(=O)c1cn(C2CC2)c3cc(N4CCNCC4)c(F)cc3c1=O

> <InChI>
1/C17H18FN3O3/c18-13-7-11-14(8-15(13)20-5-3-19-4-6-20)21(10-1-2-10)9-12(16(11)22)17(23)24/h7-10,19H,1-6H2,(H,23,24)

$$$$
988
  Marvin  11101114192D          

 17 18  0  0  0  0            999 V2000
    2.1830   -3.1950    0.0000 C   0  0  0  0  0  0  0  0  0  0  0  0
    2.4379   -2.4104    0.0000 O   0  0  0  0  0  0  0  0  0  0  0  0
    1.8859   -1.7973    0.0000 C   0  0  0  0  0  0  0  0  0  0  0  0
    1.0789   -1.9688    0.0000 C   0  0  0  0  0  0  0  0  0  0  0  0
    0.5269   -1.3557    0.0000 C   0  0  0  0  0  0  0  0  0  0  0  0
    0.7818   -0.5711    0.0000 C   0  0  0  0  0  0  0  0  0  0  0  0
    0.3693    0.1433    0.0000 N   0  0  0  0  0  0  0  0  0  0  0  0
    0.9213    0.7564    0.0000 C   0  0  0  0  0  0  0  0  0  0  0  0
    1.6750    0.4209    0.0000 C   0  0  0  0  0  0  0  0  0  0  0  0
    2.3895    0.8334    0.0000 C   0  0  0  0  0  0  0  0  0  0  0  0
    3.1039    0.4209    0.0000 C   0  0  0  0  0  0  0  0  0  0  0  0
    3.8184    0.8334    0.0000 N   0  0  0  0  0  0  0  0  0  0  0  0
    4.5329    0.4209    0.0000 C   0  0  0  0  0  0  0  0  0  0  0  0
    5.2474    0.8334    0.0000 O   0  0  0  0  0  0  0  0  0  0  0  0
    4.5329   -0.4041    0.0000 C   0  0  0  0  0  0  0  0  0  0  0  0
    1.5888   -0.3996    0.0000 C   0  0  0  0  0  0  0  0  0  0  0  0
    2.1408   -1.0127    0.0000 C   0  0  0  0  0  0  0  0  0  0  0  0
  1  2  1  0  0  0  0
  2  3  1  0  0  0  0
  3  4  4  0  0  0  0
  4  5  4  0  0  0  0
  5  6  4  0  0  0  0
  6  7  4  0  0  0  0
  7  8  4  0  0  0  0
  8  9  4  0  0  0  0
  9 10  1  0  0  0  0
 10 11  1  0  0  0  0
 11 12  1  0  0  0  0
 12 13  1  0  0  0  0
 13 14  2  0  0  0  0
 13 15  1  0  0  0  0
  9 16  4  0  0  0  0
  6 16  4  0  0  0  0
 16 17  4  0  0  0  0
  3 17  4  0  0  0  0
M  STY  1   1 DAT
M  SAL   1  1   7
M  SDT   1 MRV_IMPLICIT_H                                        
M  SDD   1     0.0000    0.0000    DR    ALL  0       0  
M  SED   1 IMPL_H1
M  END

> <ChembankId>
988

> <SMILES>
COc1ccc2[nH]cc(CCNC(=O)C)c2c1

> <InChI>
1/C13H16N2O2/c1-9(16)14-6-5-10-8-15-13-4-3-11(17-2)7-12(10)13/h3-4,7-8,15H,5-6H2,1-2H3,(H,14,16)

$$$$
1371
  Marvin  11101114192D          

 15 15  0  0  0  0            999 V2000
    2.1434   -1.2375    0.0000 C   0  0  0  0  0  0  0  0  0  0  0  0
    2.1434   -0.4125    0.0000 N   0  0  0  0  0  0  0  0  0  0  0  0
    2.8579   -0.0000    0.0000 C   0  0  0  0  0  0  0  0  0  0  0  0
    1.4289   -0.0000    0.0000 C   0  0  0  0  0  0  0  0  0  0  0  0
    0.7145   -0.4125    0.0000 N   0  0  0  0  0  0  0  0  0  0  0  0
    0.0000   -0.0000    0.0000 C   0  0  0  0  0  0  0  0  0  0  0  0
    0.0000    0.8250    0.0000 N   0  0  0  0  0  0  0  0  0  0  0  0
    0.7145    1.2375    0.0000 C   0  0  0  0  0  0  0  0  0  0  0  0
    1.4289    0.8250    0.0000 N   0  0  0  0  0  0  0  0  0  0  0  0
    0.7145    2.0625    0.0000 N   0  0  0  0  0  0  0  0  0  0  0  0
   -0.0000    2.4750    0.0000 C   0  0  0  0  0  0  0  0  0  0  0  0
    1.4289    2.4750    0.0000 C   0  0  0  0  0  0  0  0  0  0  0  0
   -0.7145   -0.4125    0.0000 N   0  0  0  0  0  0  0  0  0  0  0  0
   -1.4289    0.0000    0.0000 C   0  0  0  0  0  0  0  0  0  0  0  0
   -0.7145   -1.2375    0.0000 C   0  0  0  0  0  0  0  0  0  0  0  0
  1  2  1  0  0  0  0
  2  3  1  0  0  0  0
  2  4  1  0  0  0  0
  4  5  4  0  0  0  0
  5  6  4  0  0  0  0
  6  7  4  0  0  0  0
  7  8  4  0  0  0  0
  8  9  4  0  0  0  0
  4  9  4  0  0  0  0
  8 10  1  0  0  0  0
 10 11  1  0  0  0  0
 10 12  1  0  0  0  0
  6 13  1  0  0  0  0
 13 14  1  0  0  0  0
 13 15  1  0  0  0  0
M  END

> <ChembankId>
1371

> <SMILES>
CN(C)c1nc(nc(n1)N(C)C)N(C)C

> <InChI>
1/C9H18N6/c1-13(2)7-10-8(14(3)4)12-9(11-7)15(5)6/h1-6H3

$$$$
1988380
  Marvin  11101114192D          

 33 37  0  0  0  0            999 V2000
   -2.8579   -1.6500    0.0000 C   0  0  0  0  0  0  0  0  0  0  0  0
   -2.1434   -1.2375    0.0000 C   0  0  0  0  0  0  0  0  0  0  0  0
   -1.4289   -1.6500    0.0000 C   0  0  0  0  0  0  0  0  0  0  0  0
   -0.7145   -1.2375    0.0000 C   0  0  0  0  0  0  0  0  0  0  0  0
    0.0000   -1.6500    0.0000 C   0  0  0  0  0  0  0  0  0  0  0  0
    0.0000   -2.4750    0.0000 C   0  0  0  0  0  0  0  0  0  0  0  0
   -0.7145   -2.8875    0.0000 C   0  0  0  0  0  0  0  0  0  0  0  0
   -1.4289   -2.4750    0.0000 C   0  0  0  0  0  0  0  0  0  0  0  0
    0.7145   -2.8875    0.0000 C   0  0  0  0  0  0  0  0  0  0  0  0
    0.7145   -3.7125    0.0000 O   0  0  0  0  0  0  0  0  0  0  0  0
    1.4289   -2.4750    0.0000 C   0  0  0  0  0  0  0  0  0  0  0  0
    1.4289   -1.6500    0.0000 C   0  0  0  0  0  0  0  0  0  0  0  0
    2.1434   -1.2375    0.0000 N   0  0  0  0  0  0  0  0  0  0  0  0
    2.8579   -1.6500    0.0000 C   0  0  0  0  0  0  0  0  0  0  0  0
    3.5724   -1.2375    0.0000 C   0  0  0  0  0  0  0  0  0  0  0  0
    4.2868   -1.6500    0.0000 C   0  0  0  0  0  0  0  0  0  0  0  0
    5.0013   -1.2375    0.0000 O   0  0  0  0  0  0  0  0  0  0  0  0
    5.7158   -1.6500    0.0000 C   0  0  0  0  0  0  0  0  0  0  0  0
    5.7158   -2.4750    0.0000 C   0  0  0  0  0  0  0  0  0  0  0  0
    5.0013   -2.8875    0.0000 O   0  0  0  0  0  0  0  0  0  0  0  0
    4.2868   -2.4750    0.0000 C   0  0  0  0  0  0  0  0  0  0  0  0
    3.5724   -2.8875    0.0000 C   0  0  0  0  0  0  0  0  0  0  0  0
    2.8579   -2.4750    0.0000 C   0  0  0  0  0  0  0  0  0  0  0  0
    2.1434   -2.8875    0.0000 C   0  0  0  0  0  0  0  0  0  0  0  0
    2.1434   -3.7125    0.0000 N   0  0  0  0  0  0  0  0  0  0  0  0
    2.8579   -4.1250    0.0000 C   0  0  0  0  0  0  0  0  0  0  0  0
    2.8579   -4.9500    0.0000 C   0  0  0  0  0  0  0  0  0  0  0  0
    2.1434   -5.3625    0.0000 C   0  0  0  0  0  0  0  0  0  0  0  0
    1.4289   -4.9500    0.0000 C   0  0  0  0  0  0  0  0  0  0  0  0
    1.4289   -4.1250    0.0000 C   0  0  0  0  0  0  0  0  0  0  0  0
    2.1434   -6.1875    0.0000 C   0  0  0  0  0  0  0  0  0  0  0  0
    2.8579   -6.6000    0.0000 O   0  0  0  0  0  0  0  0  0  0  0  0
    1.4289   -6.6000    0.0000 N   0  0  0  0  0  0  0  0  0  0  0  0
  1  2  1  0  0  0  0
  2  3  1  0  0  0  0
  3  4  4  0  0  0  0
  4  5  4  0  0  0  0
  5  6  4  0  0  0  0
  6  7  4  0  0  0  0
  7  8  4  0  0  0  0
  3  8  4  0  0  0  0
  6  9  1  0  0  0  0
  9 10  2  0  0  0  0
  9 11  1  0  0  0  0
 11 12  4  0  0  0  0
 12 13  4  0  0  0  0
 13 14  4  0  0  0  0
 14 15  4  0  0  0  0
 15 16  4  0  0  0  0
 16 17  1  0  0  0  0
 17 18  1  0  0  0  0
 18 19  1  0  0  0  0
 19 20  1  0  0  0  0
 20 21  1  0  0  0  0
 16 21  4  0  0  0  0
 21 22  4  0  0  0  0
 22 23  4  0  0  0  0
 14 23  4  0  0  0  0
 23 24  4  0  0  0  0
 11 24  4  0  0  0  0
 24 25  1  0  0  0  0
 25 26  1  0  0  0  0
 26 27  1  0  0  0  0
 27 28  1  0  0  0  0
 28 29  1  0  0  0  0
 29 30  1  0  0  0  0
 25 30  1  0  0  0  0
 28 31  1  0  0  0  0
 31 32  2  0  0  0  0
 31 33  1  0  0  0  0
M  END

> <ChembankId>
1988380

> <SMILES>
CCc1ccc(cc1)C(=O)c2cnc3cc4OCCOc4cc3c2N5CCC(CC5)C(=O)N

> <InChI>
1/C26H27N3O4/c1-2-16-3-5-17(6-4-16)25(30)20-15-28-21-14-23-22(32-11-12-33-23)13-19(21)24(20)29-9-7-18(8-10-29)26(27)31/h3-6,13-15,18H,2,7-12H2,1H3,(H2,27,31)

$$$$
1365
  Marvin  11101114192D          

 21 23  0  0  0  0            999 V2000
    2.3747    3.6320    0.0000 C   0  0  0  0  0  0  0  0  0  0  0  0
    2.3747    2.8070    0.0000 N   0  0  0  0  0  0  0  0  0  0  0  0
    1.6603    2.3945    0.0000 C   0  0  0  0  0  0  0  0  0  0  0  0
    3.0892    2.3945    0.0000 C   0  0  0  0  0  0  0  0  0  0  0  0
    3.0892    1.5695    0.0000 C   0  0  0  0  0  0  0  0  0  0  0  0
    3.8037    1.1570    0.0000 C   0  0  0  0  0  0  0  0  0  0  0  0
    3.8037    0.3320    0.0000 C   0  0  0  0  0  0  0  0  0  0  0  0
    4.5470   -0.0260    0.0000 C   0  0  0  0  0  0  0  0  0  0  0  0
    5.1517    0.5352    0.0000 C   0  0  0  0  0  0  0  0  0  0  0  0
    5.9401    0.2920    0.0000 C   0  0  0  0  0  0  0  0  0  0  0  0
    6.1237   -0.5123    0.0000 C   0  0  0  0  0  0  0  0  0  0  0  0
    5.5189   -1.0735    0.0000 C   0  0  0  0  0  0  0  0  0  0  0  0
    4.7305   -0.8303    0.0000 C   0  0  0  0  0  0  0  0  0  0  0  0
    4.2162   -1.4753    0.0000 C   0  0  0  0  0  0  0  0  0  0  0  0
    3.3912   -1.4753    0.0000 C   0  0  0  0  0  0  0  0  0  0  0  0
    2.8768   -0.8303    0.0000 C   0  0  0  0  0  0  0  0  0  0  0  0
    2.0884   -1.0735    0.0000 C   0  0  0  0  0  0  0  0  0  0  0  0
    1.4837   -0.5123    0.0000 C   0  0  0  0  0  0  0  0  0  0  0  0
    1.6673    0.2920    0.0000 C   0  0  0  0  0  0  0  0  0  0  0  0
    2.4556    0.5352    0.0000 C   0  0  0  0  0  0  0  0  0  0  0  0
    3.0604   -0.0260    0.0000 C   0  0  0  0  0  0  0  0  0  0  0  0
  1  2  1  0  0  0  0
  2  3  1  0  0  0  0
  2  4  1  0  0  0  0
  4  5  1  0  0  0  0
  5  6  1  0  0  0  0
  6  7  2  0  0  0  0
  7  8  1  0  0  0  0
  8  9  4  0  0  0  0
  9 10  4  0  0  0  0
 10 11  4  0  0  0  0
 11 12  4  0  0  0  0
 12 13  4  0  0  0  0
  8 13  4  0  0  0  0
 13 14  1  0  0  0  0
 14 15  1  0  0  0  0
 15 16  1  0  0  0  0
 16 17  4  0  0  0  0
 17 18  4  0  0  0  0
 18 19  4  0  0  0  0
 19 20  4  0  0  0  0
 20 21  4  0  0  0  0
  7 21  1  0  0  0  0
 16 21  4  0  0  0  0
M  END

> <ChembankId>
1365

> <SMILES>
CN(C)CCC=C1c2ccccc2CCc3ccccc13

> <InChI>
1/C20H23N/c1-21(2)15-7-12-20-18-10-5-3-8-16(18)13-14-17-9-4-6-11-19(17)20/h3-6,8-12H,7,13-15H2,1-2H3

$$$$
1289
  Marvin  11101114192D          

 26 29  0  0  1  0            999 V2000
    3.5330   -3.2587    0.0000 C   0  0  0  0  0  0  0  0  0  0  0  0
    3.8928   -2.5163    0.0000 C   0  0  2  0  0  0  0  0  0  0  0  0
    4.4247   -3.1470    0.0000 C   0  0  0  0  0  0  0  0  0  0  0  0
    5.2368   -3.0018    0.0000 C   0  0  2  0  0  0  0  0  0  0  0  0
    5.7686   -3.6325    0.0000 O   0  0  0  0  0  0  0  0  0  0  0  0
    5.5171   -2.2259    0.0000 C   0  0  0  0  0  0  0  0  0  0  0  0
    4.9853   -1.5952    0.0000 C   0  0  0  0  0  0  0  0  0  0  0  0
    5.2655   -0.8192    0.0000 C   0  0  0  0  0  0  0  0  0  0  0  0
    6.0777   -0.6740    0.0000 C   0  0  0  0  0  0  0  0  0  0  0  0
    6.6095   -1.3047    0.0000 C   0  0  0  0  0  0  0  0  0  0  0  0
    7.4216   -1.1595    0.0000 C   0  0  0  0  0  0  0  0  0  0  0  0
    7.9534   -1.7902    0.0000 C   0  0  0  0  0  0  0  0  0  0  0  0
    8.7655   -1.6450    0.0000 O   0  0  0  0  0  0  0  0  0  0  0  0
    7.6731   -2.5662    0.0000 C   0  0  0  0  0  0  0  0  0  0  0  0
    6.8610   -2.7114    0.0000 C   0  0  0  0  0  0  0  0  0  0  0  0
    6.3292   -2.0807    0.0000 C   0  0  2  0  0  0  0  0  0  0  0  0
    6.0489   -2.8566    0.0000 C   0  0  0  0  0  0  0  0  0  0  0  0
    4.1731   -1.7404    0.0000 C   0  0  0  0  0  0  0  0  0  0  0  0
    3.5218   -1.2340    0.0000 C   0  0  0  0  0  0  0  0  0  0  0  0
    2.8390   -1.6970    0.0000 C   0  0  0  0  0  0  0  0  0  0  0  0
    3.0683   -2.4895    0.0000 C   0  0  1  0  0  0  0  0  0  0  0  0
    2.3074   -2.8084    0.0000 O   0  0  0  0  0  0  0  0  0  0  0  0
    2.9469   -3.3055    0.0000 C   0  0  0  0  0  0  0  0  0  0  0  0
    3.5929   -3.8187    0.0000 O   0  0  0  0  0  0  0  0  0  0  0  0
    2.1795   -3.6084    0.0000 C   0  0  0  0  0  0  0  0  0  0  0  0
    2.0581   -4.4244    0.0000 O   0  0  0  0  0  0  0  0  0  0  0  0
  2  1  1  1  0  0  0
  2  3  1  0  0  0  0
  3  4  1  0  0  0  0
  4  5  1  1  0  0  0
  4  6  1  0  0  0  0
  6  7  1  0  0  0  0
  7  8  1  0  0  0  0
  8  9  1  0  0  0  0
  9 10  1  0  0  0  0
 10 11  2  0  0  0  0
 11 12  1  0  0  0  0
 12 13  2  0  0  0  0
 12 14  1  0  0  0  0
 14 15  2  0  0  0  0
 15 16  1  0  0  0  0
  6 16  1  0  0  0  0
 10 16  1  0  0  0  0
 16 17  1  1  0  0  0
  7 18  1  0  0  0  0
  2 18  1  0  0  0  0
 18 19  1  0  0  0  0
 19 20  1  0  0  0  0
 20 21  1  0  0  0  0
  2 21  1  0  0  0  0
 21 22  1  6  0  0  0
 21 23  1  1  0  0  0
 23 24  2  0  0  0  0
 23 25  1  0  0  0  0
 25 26  1  0  0  0  0
M  END

> <ChembankId>
1289

> <SMILES>
C[C@@]12C[C@H](O)C3C(CCC4=CC(=O)C=C[C@]34C)C2CC[C@]1(O)C(=O)CO

> <InChI>
1/C21H28O5/c1-19-7-5-13(23)9-12(19)3-4-14-15-6-8-21(26,17(25)11-22)20(15,2)10-16(24)18(14)19/h5,7,9,14-16,18,22,24,26H,3-4,6,8,10-11H2,1-2H3

$$$$
3273
  Marvin  11101114192D          

 10 10  0  0  0  0            999 V2000
   -0.7145    3.7125    0.0000 N   0  0  0  0  0  0  0  0  0  0  0  0
   -0.0000    3.3000    0.0000 N   0  0  0  0  0  0  0  0  0  0  0  0
   -0.0000    2.4750    0.0000 C   0  0  0  0  0  0  0  0  0  0  0  0
    0.7145    2.0625    0.0000 C   0  0  0  0  0  0  0  0  0  0  0  0
    0.7145    1.2375    0.0000 C   0  0  0  0  0  0  0  0  0  0  0  0
    1.4289    0.8250    0.0000 C   0  0  0  0  0  0  0  0  0  0  0  0
    1.4289    0.0000    0.0000 C   0  0  0  0  0  0  0  0  0  0  0  0
    0.7145   -0.4125    0.0000 C   0  0  0  0  0  0  0  0  0  0  0  0
    0.0000   -0.0000    0.0000 C   0  0  0  0  0  0  0  0  0  0  0  0
   -0.0000    0.8250    0.0000 C   0  0  0  0  0  0  0  0  0  0  0  0
  1  2  1  0  0  0  0
  2  3  1  0  0  0  0
  3  4  1  0  0  0  0
  4  5  1  0  0  0  0
  5  6  4  0  0  0  0
  6  7  4  0  0  0  0
  7  8  4  0  0  0  0
  8  9  4  0  0  0  0
  9 10  4  0  0  0  0
  5 10  4  0  0  0  0
M  END

> <ChembankId>
3273

> <SMILES>
NNCCc1ccccc1

> <InChI>
1/C8H12N2/c9-10-7-6-8-4-2-1-3-5-8/h1-5,10H,6-7,9H2

$$$$
1171
  Marvin  11101114192D          

 13 13  0  0  0  0            999 V2000
    3.5724    1.2375    0.0000 C   0  0  0  0  0  0  0  0  0  0  0  0
    2.8579    0.8250    0.0000 C   0  0  0  0  0  0  0  0  0  0  0  0
    2.8579   -0.0000    0.0000 O   0  0  0  0  0  0  0  0  0  0  0  0
    2.1434    1.2375    0.0000 O   0  0  0  0  0  0  0  0  0  0  0  0
    1.4289    0.8250    0.0000 C   0  0  0  0  0  0  0  0  0  0  0  0
    1.4289   -0.0000    0.0000 C   0  0  0  0  0  0  0  0  0  0  0  0
    0.7145   -0.4125    0.0000 C   0  0  0  0  0  0  0  0  0  0  0  0
    0.0000    0.0000    0.0000 C   0  0  0  0  0  0  0  0  0  0  0  0
    0.0000    0.8250    0.0000 C   0  0  0  0  0  0  0  0  0  0  0  0
    0.7145    1.2375    0.0000 C   0  0  0  0  0  0  0  0  0  0  0  0
    0.7145    2.0625    0.0000 C   0  0  0  0  0  0  0  0  0  0  0  0
    1.4289    2.4750    0.0000 O   0  0  0  0  0  0  0  0  0  0  0  0
    0.0000    2.4750    0.0000 O   0  0  0  0  0  0  0  0  0  0  0  0
  1  2  1  0  0  0  0
  2  3  2  0  0  0  0
  2  4  1  0  0  0  0
  4  5  1  0  0  0  0
  5  6  4  0  0  0  0
  6  7  4  0  0  0  0
  7  8  4  0  0  0  0
  8  9  4  0  0  0  0
  9 10  4  0  0  0  0
  5 10  4  0  0  0  0
 10 11  1  0  0  0  0
 11 12  2  0  0  0  0
 11 13  1  0  0  0  0
M  END

> <ChembankId>
1171

> <SMILES>
CC(=O)Oc1ccccc1C(=O)O

> <InChI>
1/C9H8O4/c1-6(10)13-8-5-3-2-4-7(8)9(11)12/h2-5H,1H3,(H,11,12)

$$$$
1132
  Marvin  11101114192D          

 17 17  0  0  0  0            999 V2000
   -3.5724   -2.8875    0.0000 C   0  0  0  0  0  0  0  0  0  0  0  0
   -2.8579   -2.4750    0.0000 C   0  0  0  0  0  0  0  0  0  0  0  0
   -2.1434   -2.8875    0.0000 C   0  0  0  0  0  0  0  0  0  0  0  0
   -1.4289   -2.4750    0.0000 N   0  0  0  0  0  0  0  0  0  0  0  0
   -0.7145   -2.8875    0.0000 C   0  0  0  0  0  0  0  0  0  0  0  0
   -0.7145   -3.7125    0.0000 O   0  0  0  0  0  0  0  0  0  0  0  0
    0.0000   -2.4750    0.0000 N   0  0  0  0  0  0  0  0  0  0  0  0
    0.7145   -2.8875    0.0000 S   0  0  0  0  0  0  0  0  0  0  0  0
    0.3020   -3.6020    0.0000 O   0  0  0  0  0  0  0  0  0  0  0  0
    1.1270   -2.1730    0.0000 O   0  0  0  0  0  0  0  0  0  0  0  0
    1.4289   -3.3000    0.0000 C   0  0  0  0  0  0  0  0  0  0  0  0
    2.1434   -2.8875    0.0000 C   0  0  0  0  0  0  0  0  0  0  0  0
    2.8579   -3.3000    0.0000 C   0  0  0  0  0  0  0  0  0  0  0  0
    2.8579   -4.1250    0.0000 C   0  0  0  0  0  0  0  0  0  0  0  0
    3.5724   -4.5375    0.0000 Cl  0  0  0  0  0  0  0  0  0  0  0  0
    2.1434   -4.5375    0.0000 C   0  0  0  0  0  0  0  0  0  0  0  0
    1.4289   -4.1250    0.0000 C   0  0  0  0  0  0  0  0  0  0  0  0
  1  2  1  0  0  0  0
  2  3  1  0  0  0  0
  3  4  1  0  0  0  0
  4  5  1  0  0  0  0
  5  6  2  0  0  0  0
  5  7  1  0  0  0  0
  7  8  1  0  0  0  0
  8  9  2  0  0  0  0
  8 10  2  0  0  0  0
  8 11  1  0  0  0  0
 11 12  4  0  0  0  0
 12 13  4  0  0  0  0
 13 14  4  0  0  0  0
 14 15  1  0  0  0  0
 14 16  4  0  0  0  0
 16 17  4  0  0  0  0
 11 17  4  0  0  0  0
M  END

> <ChembankId>
1132

> <SMILES>
CCCNC(=O)NS(=O)(=O)c1ccc(Cl)cc1

> <InChI>
1/C10H13ClN2O3S/c1-2-7-12-10(14)13-17(15,16)9-5-3-8(11)4-6-9/h3-6H,2,7H2,1H3,(H2,12,13,14)

$$$$
471
  Marvin  11101114192D          

 10  9  0  0  0  0            999 V2000
    1.7605    1.8414    0.0000 C   0  0  0  0  0  0  0  0  0  0  0  0
    2.4750    1.4289    0.0000 C   0  0  0  0  0  0  0  0  0  0  0  0
    3.1895    1.8414    0.0000 C   0  0  0  0  0  0  0  0  0  0  0  0
    3.9039    1.4289    0.0000 C   0  0  0  0  0  0  0  0  0  0  0  0
    4.6184    1.8414    0.0000 C   0  0  0  0  0  0  0  0  0  0  0  0
    5.3329    1.4289    0.0000 C   0  0  0  0  0  0  0  0  0  0  0  0
    6.0474    1.8414    0.0000 C   0  0  0  0  0  0  0  0  0  0  0  0
    3.9039    0.6039    0.0000 C   0  0  0  0  0  0  0  0  0  0  0  0
    4.6184    0.1914    0.0000 O   0  0  0  0  0  0  0  0  0  0  0  0
    3.1895    0.1914    0.0000 O   0  0  0  0  0  0  0  0  0  0  0  0
  1  2  1  0  0  0  0
  2  3  1  0  0  0  0
  3  4  1  0  0  0  0
  4  5  1  0  0  0  0
  5  6  1  0  0  0  0
  6  7  1  0  0  0  0
  4  8  1  0  0  0  0
  8  9  2  0  0  0  0
  8 10  1  0  0  0  0
M  END

> <ChembankId>
471

> <SMILES>
CCCC(CCC)C(=O)O

> <InChI>
1/C8H16O2/c1-3-5-7(6-4-2)8(9)10/h7H,3-6H2,1-2H3,(H,9,10)

$$$$
1001935
  Marvin  11101114192D          

 20 23  0  0  1  0            999 V2000
    3.5330   -3.2587    0.0000 C   0  0  0  0  0  0  0  0  0  0  0  0
    3.8928   -2.5163    0.0000 C   0  0  2  0  0  0  0  0  0  0  0  0
    4.4247   -3.1470    0.0000 C   0  0  0  0  0  0  0  0  0  0  0  0
    5.2368   -3.0018    0.0000 C   0  0  0  0  0  0  0  0  0  0  0  0
    5.5171   -2.2259    0.0000 C   0  0  1  0  0  0  0  0  0  0  0  0
    4.9853   -1.5952    0.0000 C   0  0  1  0  0  0  0  0  0  0  0  0
    5.2655   -0.8192    0.0000 C   0  0  0  0  0  0  0  0  0  0  0  0
    6.0777   -0.6740    0.0000 C   0  0  0  0  0  0  0  0  0  0  0  0
    6.6095   -1.3047    0.0000 C   0  0  0  0  0  0  0  0  0  0  0  0
    7.4216   -1.1595    0.0000 C   0  0  0  0  0  0  0  0  0  0  0  0
    7.9534   -1.7902    0.0000 C   0  0  0  0  0  0  0  0  0  0  0  0
    8.7655   -1.6450    0.0000 O   0  0  0  0  0  0  0  0  0  0  0  0
    7.6731   -2.5662    0.0000 C   0  0  0  0  0  0  0  0  0  0  0  0
    6.8610   -2.7114    0.0000 C   0  0  0  0  0  0  0  0  0  0  0  0
    6.3292   -2.0807    0.0000 C   0  0  0  0  0  0  0  0  0  0  0  0
    4.1731   -1.7404    0.0000 C   0  0  2  0  0  0  0  0  0  0  0  0
    3.5218   -1.2340    0.0000 C   0  0  0  0  0  0  0  0  0  0  0  0
    2.8390   -1.6970    0.0000 C   0  0  0  0  0  0  0  0  0  0  0  0
    3.0683   -2.4895    0.0000 C   0  0  1  0  0  0  0  0  0  0  0  0
    2.5619   -3.1408    0.0000 O   0  0  0  0  0  0  0  0  0  0  0  0
  2  1  1  1  0  0  0
  2  3  1  0  0  0  0
  3  4  1  0  0  0  0
  4  5  1  0  0  0  0
  5  6  1  0  0  0  0
  6  7  1  6  0  0  0
  7  8  1  0  0  0  0
  8  9  1  0  0  0  0
  9 10  4  0  0  0  0
 10 11  4  0  0  0  0
 11 12  1  0  0  0  0
 11 13  4  0  0  0  0
 13 14  4  0  0  0  0
 14 15  4  0  0  0  0
  5 15  1  1  0  0  0
  9 15  4  0  0  0  0
  6 16  1  0  0  0  0
  2 16  1  0  0  0  0
 16 17  1  1  0  0  0
 17 18  1  0  0  0  0
 18 19  1  0  0  0  0
  2 19  1  0  0  0  0
 19 20  1  6  0  0  0
M  END

> <ChembankId>
1001935

> <SMILES>
C[C@@]12CC[C@H]3[C@@H](CCc4cc(O)ccc34)[C@@H]2CC[C@H]1O

> <InChI>
1/C18H24O2/c1-18-9-8-14-13-5-3-12(19)10-11(13)2-4-15(14)16(18)6-7-17(18)20/h3,5,10,14-17,19-20H,2,4,6-9H2,1H3/t14-,15-,16-,17-,18+/m1/s1

$$$$
1041
  Marvin  11101114192D          

 25 28  0  0  0  0            999 V2000
   -1.4289    4.9500    0.0000 C   0  0  0  0  0  0  0  0  0  0  0  0
   -0.7145    4.5375    0.0000 N   0  0  0  0  0  0  0  0  0  0  0  0
   -0.0000    4.9500    0.0000 C   0  0  0  0  0  0  0  0  0  0  0  0
    0.7145    4.5375    0.0000 C   0  0  0  0  0  0  0  0  0  0  0  0
    0.7145    3.7125    0.0000 N   0  0  0  0  0  0  0  0  0  0  0  0
    1.4289    3.3000    0.0000 C   0  0  0  0  0  0  0  0  0  0  0  0
    1.4289    2.4750    0.0000 C   0  0  0  0  0  0  0  0  0  0  0  0
    2.1434    2.0625    0.0000 C   0  0  0  0  0  0  0  0  0  0  0  0
    2.1434    1.2375    0.0000 N   0  0  0  0  0  0  0  0  0  0  0  0
    2.8579    0.8250    0.0000 C   0  0  0  0  0  0  0  0  0  0  0  0
    3.5724    1.2375    0.0000 C   0  0  0  0  0  0  0  0  0  0  0  0
    4.2868    0.8250    0.0000 C   0  0  0  0  0  0  0  0  0  0  0  0
    4.2868   -0.0000    0.0000 C   0  0  0  0  0  0  0  0  0  0  0  0
    3.5724   -0.4125    0.0000 C   0  0  0  0  0  0  0  0  0  0  0  0
    2.8579    0.0000    0.0000 C   0  0  0  0  0  0  0  0  0  0  0  0
    2.1434   -0.4125    0.0000 S   0  0  0  0  0  0  0  0  0  0  0  0
    1.4289    0.0000    0.0000 C   0  0  0  0  0  0  0  0  0  0  0  0
    0.7145   -0.4125    0.0000 C   0  0  0  0  0  0  0  0  0  0  0  0
    0.0000    0.0000    0.0000 C   0  0  0  0  0  0  0  0  0  0  0  0
    0.0000    0.8250    0.0000 C   0  0  0  0  0  0  0  0  0  0  0  0
   -0.7145    1.2375    0.0000 Cl  0  0  0  0  0  0  0  0  0  0  0  0
    0.7145    1.2375    0.0000 C   0  0  0  0  0  0  0  0  0  0  0  0
    1.4289    0.8250    0.0000 C   0  0  0  0  0  0  0  0  0  0  0  0
   -0.0000    3.3000    0.0000 C   0  0  0  0  0  0  0  0  0  0  0  0
   -0.7145    3.7125    0.0000 C   0  0  0  0  0  0  0  0  0  0  0  0
  1  2  1  0  0  0  0
  2  3  1  0  0  0  0
  3  4  1  0  0  0  0
  4  5  1  0  0  0  0
  5  6  1  0  0  0  0
  6  7  1  0  0  0  0
  7  8  1  0  0  0  0
  8  9  1  0  0  0  0
  9 10  1  0  0  0  0
 10 11  4  0  0  0  0
 11 12  4  0  0  0  0
 12 13  4  0  0  0  0
 13 14  4  0  0  0  0
 14 15  4  0  0  0  0
 10 15  4  0  0  0  0
 15 16  1  0  0  0  0
 16 17  1  0  0  0  0
 17 18  4  0  0  0  0
 18 19  4  0  0  0  0
 19 20  4  0  0  0  0
 20 21  1  0  0  0  0
 20 22  4  0  0  0  0
 22 23  4  0  0  0  0
  9 23  1  0  0  0  0
 17 23  4  0  0  0  0
  5 24  1  0  0  0  0
 24 25  1  0  0  0  0
  2 25  1  0  0  0  0
M  END

> <ChembankId>
1041

> <SMILES>
CN1CCN(CCCN2c3ccccc3Sc4ccc(Cl)cc24)CC1

> <InChI>
1/C20H24ClN3S/c1-22-11-13-23(14-12-22)9-4-10-24-17-5-2-3-6-19(17)25-20-8-7-16(21)15-18(20)24/h2-3,5-8,15H,4,9-14H2,1H3

$$$$
915
  Marvin  11101114192D          

 19 20  0  0  0  0            999 V2000
    1.4289    0.8250    0.0000 O   0  0  0  0  0  0  0  0  0  0  0  0
    1.4289    0.0000    0.0000 C   0  0  0  0  0  0  0  0  0  0  0  0
    0.7145   -0.4125    0.0000 O   0  0  0  0  0  0  0  0  0  0  0  0
    2.1434   -0.4125    0.0000 C   0  0  0  0  0  0  0  0  0  0  0  0
    2.1434   -1.2375    0.0000 C   0  0  0  0  0  0  0  0  0  0  0  0
    1.4289   -1.6500    0.0000 C   0  0  0  0  0  0  0  0  0  0  0  0
    1.4289   -2.4750    0.0000 C   0  0  0  0  0  0  0  0  0  0  0  0
    2.1434   -2.8875    0.0000 C   0  0  0  0  0  0  0  0  0  0  0  0
    2.8579   -2.4750    0.0000 C   0  0  0  0  0  0  0  0  0  0  0  0
    2.8579   -1.6500    0.0000 C   0  0  0  0  0  0  0  0  0  0  0  0
    3.5724   -1.2375    0.0000 N   0  0  0  0  0  0  0  0  0  0  0  0
    4.2868   -1.6500    0.0000 C   0  0  0  0  0  0  0  0  0  0  0  0
    5.0013   -1.2375    0.0000 C   0  0  0  0  0  0  0  0  0  0  0  0
    5.0013   -0.4125    0.0000 Cl  0  0  0  0  0  0  0  0  0  0  0  0
    5.7158   -1.6500    0.0000 C   0  0  0  0  0  0  0  0  0  0  0  0
    5.7158   -2.4750    0.0000 C   0  0  0  0  0  0  0  0  0  0  0  0
    5.0013   -2.8875    0.0000 C   0  0  0  0  0  0  0  0  0  0  0  0
    4.2868   -2.4750    0.0000 C   0  0  0  0  0  0  0  0  0  0  0  0
    3.5724   -2.8875    0.0000 Cl  0  0  0  0  0  0  0  0  0  0  0  0
  1  2  1  0  0  0  0
  2  3  2  0  0  0  0
  2  4  1  0  0  0  0
  4  5  1  0  0  0  0
  5  6  4  0  0  0  0
  6  7  4  0  0  0  0
  7  8  4  0  0  0  0
  8  9  4  0  0  0  0
  9 10  4  0  0  0  0
  5 10  4  0  0  0  0
 10 11  1  0  0  0  0
 11 12  1  0  0  0  0
 12 13  4  0  0  0  0
 13 14  1  0  0  0  0
 13 15  4  0  0  0  0
 15 16  4  0  0  0  0
 16 17  4  0  0  0  0
 17 18  4  0  0  0  0
 12 18  4  0  0  0  0
 18 19  1  0  0  0  0
M  END

> <ChembankId>
915

> <SMILES>
OC(=O)Cc1ccccc1Nc2c(Cl)cccc2Cl

> <InChI>
1/C14H11Cl2NO2/c15-10-5-3-6-11(16)14(10)17-12-7-2-1-4-9(12)8-13(18)19/h1-7,17H,8H2,(H,18,19)

$$$$
731
  Marvin  11101114192D          

 25 28  0  0  0  0            999 V2000
    0.0000   -2.4750    0.0000 C   0  0  0  0  0  0  0  0  0  0  0  0
    0.7145   -2.8875    0.0000 S   0  0  0  0  0  0  0  0  0  0  0  0
    1.4289   -2.4750    0.0000 C   0  0  0  0  0  0  0  0  0  0  0  0
    1.4289   -1.6500    0.0000 C   0  0  0  0  0  0  0  0  0  0  0  0
    2.1434   -1.2375    0.0000 C   0  0  0  0  0  0  0  0  0  0  0  0
    2.8579   -1.6500    0.0000 C   0  0  0  0  0  0  0  0  0  0  0  0
    3.5724   -1.2375    0.0000 S   0  0  0  0  0  0  0  0  0  0  0  0
    4.2868   -1.6500    0.0000 C   0  0  0  0  0  0  0  0  0  0  0  0
    5.0013   -1.2375    0.0000 C   0  0  0  0  0  0  0  0  0  0  0  0
    5.7158   -1.6500    0.0000 C   0  0  0  0  0  0  0  0  0  0  0  0
    5.7158   -2.4750    0.0000 C   0  0  0  0  0  0  0  0  0  0  0  0
    5.0013   -2.8875    0.0000 C   0  0  0  0  0  0  0  0  0  0  0  0
    4.2868   -2.4750    0.0000 C   0  0  0  0  0  0  0  0  0  0  0  0
    3.5724   -2.8875    0.0000 N   0  0  0  0  0  0  0  0  0  0  0  0
    3.5724   -3.7125    0.0000 C   0  0  0  0  0  0  0  0  0  0  0  0
    4.2868   -4.1250    0.0000 C   0  0  0  0  0  0  0  0  0  0  0  0
    4.2868   -4.9500    0.0000 C   0  0  0  0  0  0  0  0  0  0  0  0
    5.0013   -5.3625    0.0000 C   0  0  0  0  0  0  0  0  0  0  0  0
    5.0013   -6.1875    0.0000 C   0  0  0  0  0  0  0  0  0  0  0  0
    4.2868   -6.6000    0.0000 C   0  0  0  0  0  0  0  0  0  0  0  0
    3.5724   -6.1875    0.0000 C   0  0  0  0  0  0  0  0  0  0  0  0
    3.5724   -5.3625    0.0000 N   0  0  0  0  0  0  0  0  0  0  0  0
    2.8579   -4.9500    0.0000 C   0  0  0  0  0  0  0  0  0  0  0  0
    2.8579   -2.4750    0.0000 C   0  0  0  0  0  0  0  0  0  0  0  0
    2.1434   -2.8875    0.0000 C   0  0  0  0  0  0  0  0  0  0  0  0
  1  2  1  0  0  0  0
  2  3  1  0  0  0  0
  3  4  4  0  0  0  0
  4  5  4  0  0  0  0
  5  6  4  0  0  0  0
  6  7  1  0  0  0  0
  7  8  1  0  0  0  0
  8  9  4  0  0  0  0
  9 10  4  0  0  0  0
 10 11  4  0  0  0  0
 11 12  4  0  0  0  0
 12 13  4  0  0  0  0
  8 13  4  0  0  0  0
 13 14  1  0  0  0  0
 14 15  1  0  0  0  0
 15 16  1  0  0  0  0
 16 17  1  0  0  0  0
 17 18  1  0  0  0  0
 18 19  1  0  0  0  0
 19 20  1  0  0  0  0
 20 21  1  0  0  0  0
 21 22  1  0  0  0  0
 17 22  1  0  0  0  0
 22 23  1  0  0  0  0
 14 24  1  0  0  0  0
  6 24  4  0  0  0  0
 24 25  4  0  0  0  0
  3 25  4  0  0  0  0
M  END

> <ChembankId>
731

> <SMILES>
CSc1ccc2Sc3ccccc3N(CCC4CCCCN4C)c2c1

> <InChI>
1/C21H26N2S2/c1-22-13-6-5-7-16(22)12-14-23-18-8-3-4-9-20(18)25-21-11-10-17(24-2)15-19(21)23/h3-4,8-11,15-16H,5-7,12-14H2,1-2H3

$$$$
1714
  Marvin  11101114192D          

  9  8  0  0  0  0            999 V2000
   -0.1914    0.7145    0.0000 C   0  0  0  0  0  0  0  0  0  0  0  0
    0.5230    1.1270    0.0000 N   0  0  0  0  0  0  0  0  0  0  0  0
    0.5230    1.9520    0.0000 C   0  0  0  0  0  0  0  0  0  0  0  0
    1.2375    0.7145    0.0000 C   0  0  0  0  0  0  0  0  0  0  0  0
    1.2375   -0.1105    0.0000 N   0  0  0  0  0  0  0  0  0  0  0  0
    1.9520    1.1270    0.0000 N   0  0  0  0  0  0  0  0  0  0  0  0
    2.6664    0.7145    0.0000 C   0  0  0  0  0  0  0  0  0  0  0  0
    3.3809    1.1270    0.0000 N   0  0  0  0  0  0  0  0  0  0  0  0
    2.6664   -0.1105    0.0000 N   0  0  0  0  0  0  0  0  0  0  0  0
  1  2  1  0  0  0  0
  2  3  1  0  0  0  0
  2  4  1  0  0  0  0
  4  5  2  0  0  0  0
  4  6  1  0  0  0  0
  6  7  1  0  0  0  0
  7  8  2  0  0  0  0
  7  9  1  0  0  0  0
M  END

> <ChembankId>
1714

> <SMILES>
CN(C)C(=N)NC(=N)N

> <InChI>
1/C4H11N5/c1-9(2)4(7)8-3(5)6/h1-2H3,(H5,5,6,7,8)

$$$$
1448
  Marvin  11101114192D          

 28 30  0  0  0  0            999 V2000
    5.7158   -1.6500    0.0000 O   0  0  0  0  0  0  0  0  0  0  0  0
    6.4302   -2.0625    0.0000 C   0  0  0  0  0  0  0  0  0  0  0  0
    7.1447   -1.6500    0.0000 O   0  0  0  0  0  0  0  0  0  0  0  0
    6.4302   -2.8875    0.0000 C   0  0  0  0  0  0  0  0  0  0  0  0
    7.1447   -3.3000    0.0000 C   0  0  0  0  0  0  0  0  0  0  0  0
    7.1447   -4.1250    0.0000 C   0  0  0  0  0  0  0  0  0  0  0  0
    7.8592   -4.5375    0.0000 N   0  0  0  0  0  0  0  0  0  0  0  0
    8.5737   -4.1250    0.0000 N   0  0  0  0  0  0  0  0  0  0  0  0
    9.2881   -4.5375    0.0000 C   0  0  0  0  0  0  0  0  0  0  0  0
   10.0026   -4.1250    0.0000 C   0  0  0  0  0  0  0  0  0  0  0  0
   10.7171   -4.5375    0.0000 C   0  0  0  0  0  0  0  0  0  0  0  0
   10.7171   -5.3625    0.0000 C   0  0  0  0  0  0  0  0  0  0  0  0
   10.0026   -5.7750    0.0000 C   0  0  0  0  0  0  0  0  0  0  0  0
    9.2881   -5.3625    0.0000 C   0  0  0  0  0  0  0  0  0  0  0  0
   11.4315   -5.7750    0.0000 S   0  0  0  0  0  0  0  0  0  0  0  0
   11.0190   -6.4895    0.0000 O   0  0  0  0  0  0  0  0  0  0  0  0
   11.8440   -5.0605    0.0000 O   0  0  0  0  0  0  0  0  0  0  0  0
   12.1460   -6.1875    0.0000 N   0  0  0  0  0  0  0  0  0  0  0  0
   12.1460   -7.0125    0.0000 C   0  0  0  0  0  0  0  0  0  0  0  0
   12.8605   -7.4250    0.0000 C   0  0  0  0  0  0  0  0  0  0  0  0
   12.8605   -8.2500    0.0000 C   0  0  0  0  0  0  0  0  0  0  0  0
   12.1460   -8.6625    0.0000 C   0  0  0  0  0  0  0  0  0  0  0  0
   11.4315   -8.2500    0.0000 C   0  0  0  0  0  0  0  0  0  0  0  0
   11.4315   -7.4250    0.0000 N   0  0  0  0  0  0  0  0  0  0  0  0
    6.4302   -4.5375    0.0000 C   0  0  0  0  0  0  0  0  0  0  0  0
    5.7158   -4.1250    0.0000 C   0  0  0  0  0  0  0  0  0  0  0  0
    5.7158   -3.3000    0.0000 C   0  0  0  0  0  0  0  0  0  0  0  0
    5.0013   -2.8875    0.0000 O   0  0  0  0  0  0  0  0  0  0  0  0
  1  2  1  0  0  0  0
  2  3  2  0  0  0  0
  2  4  1  0  0  0  0
  4  5  4  0  0  0  0
  5  6  4  0  0  0  0
  7  6  1  4  0  0  0
  7  8  2  0  0  0  0
  8  9  1  0  0  0  0
  9 10  4  0  0  0  0
 10 11  4  0  0  0  0
 11 12  4  0  0  0  0
 12 13  4  0  0  0  0
 13 14  4  0  0  0  0
  9 14  4  0  0  0  0
 12 15  1  0  0  0  0
 15 16  2  0  0  0  0
 15 17  2  0  0  0  0
 15 18  1  0  0  0  0
 18 19  1  0  0  0  0
 19 20  4  0  0  0  0
 20 21  4  0  0  0  0
 21 22  4  0  0  0  0
 22 23  4  0  0  0  0
 23 24  4  0  0  0  0
 19 24  4  0  0  0  0
  6 25  4  0  0  0  0
 25 26  4  0  0  0  0
 26 27  4  0  0  0  0
  4 27  4  0  0  0  0
 27 28  1  0  0  0  0
M  END

> <ChembankId>
1448

> <SMILES>
OC(=O)c1cc(N=Nc2ccc(cc2)S(=O)(=O)Nc3ccccn3)ccc1O

> <InChI>
1/C18H14N4O5S/c23-16-9-6-13(11-15(16)18(24)25)21-20-12-4-7-14(8-5-12)28(26,27)22-17-3-1-2-10-19-17/h1-11,23H,(H,19,22)(H,24,25)

$$$$
2297
  Marvin  11101114192D          

  6  5  0  0  0  0            999 V2000
    0.8250    1.4289    0.0000 N   0  0  0  0  0  0  0  0  0  0  0  0
    1.2375    0.7145    0.0000 C   0  0  0  0  0  0  0  0  0  0  0  0
    2.0625    0.7145    0.0000 O   0  0  0  0  0  0  0  0  0  0  0  0
    0.8250    0.0000    0.0000 C   0  0  0  0  0  0  0  0  0  0  0  0
    1.2375   -0.7145    0.0000 O   0  0  0  0  0  0  0  0  0  0  0  0
    0.0000    0.0000    0.0000 O   0  0  0  0  0  0  0  0  0  0  0  0
  1  2  1  0  0  0  0
  2  3  2  0  0  0  0
  2  4  1  0  0  0  0
  4  5  2  0  0  0  0
  4  6  1  0  0  0  0
M  END

> <ChembankId>
2297

> <SMILES>
NC(=O)C(=O)O

> <InChI>
1/C2H3NO3/c3-1(4)2(5)6/h(H2,3,4)(H,5,6)

$$$$
1212
  Marvin  11101114192D          

 25 27  0  0  0  0            999 V2000
   -0.1712   -0.6979    0.0000 C   0  0  0  0  0  0  0  0  0  0  0  0
    0.6538   -0.6979    0.0000 C   0  0  0  0  0  0  0  0  0  0  0  0
    1.1387   -0.0305    0.0000 C   0  0  0  0  0  0  0  0  0  0  0  0
    0.8838    0.7541    0.0000 C   0  0  0  0  0  0  0  0  0  0  0  0
    1.4358    1.3672    0.0000 C   0  0  0  0  0  0  0  0  0  0  0  0
    1.1809    2.1518    0.0000 O   0  0  0  0  0  0  0  0  0  0  0  0
    2.2428    1.1957    0.0000 O   0  0  0  0  0  0  0  0  0  0  0  0
    1.9233   -0.2854    0.0000 C   0  0  0  0  0  0  0  0  0  0  0  0
    2.6378    0.1271    0.0000 C   0  0  0  0  0  0  0  0  0  0  0  0
    3.3523   -0.2854    0.0000 C   0  0  0  0  0  0  0  0  0  0  0  0
    4.0668    0.1271    0.0000 F   0  0  0  0  0  0  0  0  0  0  0  0
    3.3523   -1.1104    0.0000 C   0  0  0  0  0  0  0  0  0  0  0  0
    2.6378   -1.5229    0.0000 C   0  0  0  0  0  0  0  0  0  0  0  0
    1.9233   -1.1104    0.0000 C   0  0  0  0  0  0  0  0  0  0  0  0
    1.1387   -1.3654    0.0000 C   0  0  0  0  0  0  0  0  0  0  0  0
    0.8838   -2.1500    0.0000 C   0  0  0  0  0  0  0  0  0  0  0  0
    1.4358   -2.7631    0.0000 C   0  0  0  0  0  0  0  0  0  0  0  0
    2.2428   -2.5916    0.0000 C   0  0  0  0  0  0  0  0  0  0  0  0
    2.7948   -3.2047    0.0000 C   0  0  0  0  0  0  0  0  0  0  0  0
    2.5399   -3.9893    0.0000 C   0  0  0  0  0  0  0  0  0  0  0  0
    1.7329   -4.1608    0.0000 C   0  0  0  0  0  0  0  0  0  0  0  0
    1.1809   -3.5477    0.0000 C   0  0  0  0  0  0  0  0  0  0  0  0
    3.0919   -4.6024    0.0000 S   0  0  0  0  0  0  0  0  0  0  0  0
    3.8989   -4.4309    0.0000 O   0  0  0  0  0  0  0  0  0  0  0  0
    2.8370   -5.3870    0.0000 C   0  0  0  0  0  0  0  0  0  0  0  0
  1  2  1  0  0  0  0
  2  3  2  0  0  0  0
  3  4  1  0  0  0  0
  4  5  1  0  0  0  0
  5  6  2  0  0  0  0
  5  7  1  0  0  0  0
  3  8  1  0  0  0  0
  8  9  4  0  0  0  0
  9 10  4  0  0  0  0
 10 11  1  0  0  0  0
 10 12  4  0  0  0  0
 12 13  4  0  0  0  0
 13 14  4  0  0  0  0
  8 14  4  0  0  0  0
 14 15  1  0  0  0  0
  2 15  1  0  0  0  0
 15 16  2  0  0  0  0
 16 17  1  0  0  0  0
 17 18  4  0  0  0  0
 18 19  4  0  0  0  0
 19 20  4  0  0  0  0
 20 21  4  0  0  0  0
 21 22  4  0  0  0  0
 17 22  4  0  0  0  0
 20 23  1  0  0  0  0
 23 24  2  0  0  0  0
 23 25  1  0  0  0  0
M  END

> <ChembankId>
1212

> <SMILES>
CC/1=C(CC(=O)O)c2cc(F)ccc2\C1=C/c3ccc(cc3)S(=O)C

> <InChI>
1/C20H17FO3S/c1-12-17(9-13-3-6-15(7-4-13)25(2)24)16-8-5-14(21)10-19(16)18(12)11-20(22)23/h3-10H,11H2,1-2H3,(H,22,23)

$$$$
1837
  Marvin  11101114192D          

 22 24  0  0  0  0            999 V2000
    0.7145    2.8875    0.0000 C   0  0  0  0  0  0  0  0  0  0  0  0
    0.7145    2.0625    0.0000 S   0  0  0  0  0  0  0  0  0  0  0  0
   -0.1105    2.0625    0.0000 O   0  0  0  0  0  0  0  0  0  0  0  0
    1.5395    2.0625    0.0000 O   0  0  0  0  0  0  0  0  0  0  0  0
    0.7145    1.2375    0.0000 C   0  0  0  0  0  0  0  0  0  0  0  0
    1.4289    0.8250    0.0000 C   0  0  0  0  0  0  0  0  0  0  0  0
    1.4289   -0.0000    0.0000 C   0  0  0  0  0  0  0  0  0  0  0  0
    0.7145   -0.4125    0.0000 C   0  0  0  0  0  0  0  0  0  0  0  0
    0.0000   -0.0000    0.0000 C   0  0  0  0  0  0  0  0  0  0  0  0
    0.0000    0.8250    0.0000 C   0  0  0  0  0  0  0  0  0  0  0  0
    0.7145   -1.2375    0.0000 C   0  0  0  0  0  0  0  0  0  0  0  0
    1.3819   -1.7224    0.0000 C   0  0  0  0  0  0  0  0  0  0  0  0
    1.1270   -2.5070    0.0000 C   0  0  0  0  0  0  0  0  0  0  0  0
    1.6119   -3.1745    0.0000 O   0  0  0  0  0  0  0  0  0  0  0  0
    0.3020   -2.5070    0.0000 O   0  0  0  0  0  0  0  0  0  0  0  0
    0.0470   -1.7224    0.0000 C   0  0  0  0  0  0  0  0  0  0  0  0
    2.1665   -1.4675    0.0000 C   0  0  0  0  0  0  0  0  0  0  0  0
    2.3381   -0.6605    0.0000 C   0  0  0  0  0  0  0  0  0  0  0  0
    3.1227   -0.4056    0.0000 C   0  0  0  0  0  0  0  0  0  0  0  0
    3.7358   -0.9576    0.0000 C   0  0  0  0  0  0  0  0  0  0  0  0
    3.5642   -1.7646    0.0000 C   0  0  0  0  0  0  0  0  0  0  0  0
    2.7796   -2.0195    0.0000 C   0  0  0  0  0  0  0  0  0  0  0  0
  1  2  1  0  0  0  0
  2  3  2  0  0  0  0
  2  4  2  0  0  0  0
  2  5  1  0  0  0  0
  5  6  4  0  0  0  0
  6  7  4  0  0  0  0
  7  8  4  0  0  0  0
  8  9  4  0  0  0  0
  9 10  4  0  0  0  0
  5 10  4  0  0  0  0
  8 11  1  0  0  0  0
 11 12  2  0  0  0  0
 12 13  1  0  0  0  0
 13 14  2  0  0  0  0
 13 15  1  0  0  0  0
 15 16  1  0  0  0  0
 11 16  1  0  0  0  0
 12 17  1  0  0  0  0
 17 18  4  0  0  0  0
 18 19  4  0  0  0  0
 19 20  4  0  0  0  0
 20 21  4  0  0  0  0
 21 22  4  0  0  0  0
 17 22  4  0  0  0  0
M  END

> <ChembankId>
1837

> <SMILES>
CS(=O)(=O)c1ccc(cc1)C2=C(C(=O)OC2)c3ccccc3

> <InChI>
1/C17H14O4S/c1-22(19,20)14-9-7-12(8-10-14)15-11-21-17(18)16(15)13-5-3-2-4-6-13/h2-10H,11H2,1H3

$$$$
1579
  Marvin  11101114192D          

 22 23  0  0  0  0            999 V2000
    1.4289   -1.6500    0.0000 C   0  0  0  0  0  0  0  0  0  0  0  0
    1.4289   -2.4750    0.0000 C   0  0  0  0  0  0  0  0  0  0  0  0
    0.7145   -2.8875    0.0000 C   0  0  0  0  0  0  0  0  0  0  0  0
    0.0000   -2.4750    0.0000 C   0  0  0  0  0  0  0  0  0  0  0  0
   -0.7145   -2.8875    0.0000 C   0  0  0  0  0  0  0  0  0  0  0  0
   -1.4289   -2.4750    0.0000 C   0  0  0  0  0  0  0  0  0  0  0  0
   -1.4289   -1.6500    0.0000 C   0  0  0  0  0  0  0  0  0  0  0  0
   -2.1434   -1.2375    0.0000 O   0  0  0  0  0  0  0  0  0  0  0  0
   -0.7145   -1.2375    0.0000 C   0  0  0  0  0  0  0  0  0  0  0  0
   -0.7145   -0.4125    0.0000 O   0  0  0  0  0  0  0  0  0  0  0  0
    0.0000   -1.6500    0.0000 C   0  0  0  0  0  0  0  0  0  0  0  0
    2.1434   -2.8875    0.0000 C   0  0  0  0  0  0  0  0  0  0  0  0
    2.1434   -3.7125    0.0000 C   0  0  0  0  0  0  0  0  0  0  0  0
    2.8579   -2.4750    0.0000 C   0  0  0  0  0  0  0  0  0  0  0  0
    3.5724   -2.8875    0.0000 C   0  0  0  0  0  0  0  0  0  0  0  0
    4.2868   -2.4750    0.0000 C   0  0  0  0  0  0  0  0  0  0  0  0
    5.0013   -2.8875    0.0000 C   0  0  0  0  0  0  0  0  0  0  0  0
    5.0013   -3.7125    0.0000 C   0  0  0  0  0  0  0  0  0  0  0  0
    5.7158   -4.1250    0.0000 O   0  0  0  0  0  0  0  0  0  0  0  0
    4.2868   -4.1250    0.0000 C   0  0  0  0  0  0  0  0  0  0  0  0
    4.2868   -4.9500    0.0000 O   0  0  0  0  0  0  0  0  0  0  0  0
    3.5724   -3.7125    0.0000 C   0  0  0  0  0  0  0  0  0  0  0  0
  1  2  1  0  0  0  0
  2  3  1  0  0  0  0
  3  4  1  0  0  0  0
  4  5  4  0  0  0  0
  5  6  4  0  0  0  0
  6  7  4  0  0  0  0
  7  8  1  0  0  0  0
  7  9  4  0  0  0  0
  9 10  1  0  0  0  0
  9 11  4  0  0  0  0
  4 11  4  0  0  0  0
  2 12  1  0  0  0  0
 12 13  1  0  0  0  0
 12 14  1  0  0  0  0
 14 15  1  0  0  0  0
 15 16  4  0  0  0  0
 16 17  4  0  0  0  0
 17 18  4  0  0  0  0
 18 19  1  0  0  0  0
 18 20  4  0  0  0  0
 20 21  1  0  0  0  0
 20 22  4  0  0  0  0
 15 22  4  0  0  0  0
M  END

> <ChembankId>
1579

> <SMILES>
CC(Cc1ccc(O)c(O)c1)C(C)Cc2ccc(O)c(O)c2

> <InChI>
1/C18H22O4/c1-11(7-13-3-5-15(19)17(21)9-13)12(2)8-14-4-6-16(20)18(22)10-14/h3-6,9-12,19-22H,7-8H2,1-2H3

$$$$
1478
  Marvin  11101114192D          

 26 28  0  0  0  0            999 V2000
    0.7145    2.0625    0.0000 C   0  0  0  0  0  0  0  0  0  0  0  0
    0.7145    1.2375    0.0000 C   0  0  0  0  0  0  0  0  0  0  0  0
    1.4289    0.8250    0.0000 C   0  0  0  0  0  0  0  0  0  0  0  0
    1.4289   -0.0000    0.0000 C   0  0  0  0  0  0  0  0  0  0  0  0
    0.7145   -0.4125    0.0000 C   0  0  0  0  0  0  0  0  0  0  0  0
    0.0000   -0.0000    0.0000 C   0  0  0  0  0  0  0  0  0  0  0  0
    0.0000    0.8250    0.0000 C   0  0  0  0  0  0  0  0  0  0  0  0
    0.7145   -1.2375    0.0000 C   0  0  0  0  0  0  0  0  0  0  0  0
    1.3819   -1.7224    0.0000 C   0  0  0  0  0  0  0  0  0  0  0  0
    1.1270   -2.5070    0.0000 C   0  0  0  0  0  0  0  0  0  0  0  0
    0.3020   -2.5070    0.0000 N   0  0  0  0  0  0  0  0  0  0  0  0
    0.0470   -1.7224    0.0000 N   0  0  0  0  0  0  0  0  0  0  0  0
   -0.7376   -1.4675    0.0000 C   0  0  0  0  0  0  0  0  0  0  0  0
   -1.3507   -2.0195    0.0000 C   0  0  0  0  0  0  0  0  0  0  0  0
   -2.1353   -1.7646    0.0000 C   0  0  0  0  0  0  0  0  0  0  0  0
   -2.3068   -0.9576    0.0000 C   0  0  0  0  0  0  0  0  0  0  0  0
   -1.6937   -0.4056    0.0000 C   0  0  0  0  0  0  0  0  0  0  0  0
   -0.9091   -0.6605    0.0000 C   0  0  0  0  0  0  0  0  0  0  0  0
   -3.0915   -0.7027    0.0000 S   0  0  0  0  0  0  0  0  0  0  0  0
   -3.8761   -0.4477    0.0000 O   0  0  0  0  0  0  0  0  0  0  0  0
   -2.8365    0.0820    0.0000 O   0  0  0  0  0  0  0  0  0  0  0  0
   -3.3464   -1.4873    0.0000 N   0  0  0  0  0  0  0  0  0  0  0  0
    1.6119   -3.1745    0.0000 C   0  0  0  0  0  0  0  0  0  0  0  0
    2.0968   -3.8419    0.0000 F   0  0  0  0  0  0  0  0  0  0  0  0
    0.9445   -3.6594    0.0000 F   0  0  0  0  0  0  0  0  0  0  0  0
    2.2793   -2.6896    0.0000 F   0  0  0  0  0  0  0  0  0  0  0  0
  1  2  1  0  0  0  0
  2  3  4  0  0  0  0
  3  4  4  0  0  0  0
  4  5  4  0  0  0  0
  5  6  4  0  0  0  0
  6  7  4  0  0  0  0
  2  7  4  0  0  0  0
  5  8  1  0  0  0  0
  8  9  4  0  0  0  0
  9 10  4  0  0  0  0
 10 11  4  0  0  0  0
 11 12  4  0  0  0  0
  8 12  4  0  0  0  0
 12 13  1  0  0  0  0
 13 14  4  0  0  0  0
 14 15  4  0  0  0  0
 15 16  4  0  0  0  0
 16 17  4  0  0  0  0
 17 18  4  0  0  0  0
 13 18  4  0  0  0  0
 16 19  1  0  0  0  0
 19 20  2  0  0  0  0
 19 21  2  0  0  0  0
 19 22  1  0  0  0  0
 10 23  1  0  0  0  0
 23 24  1  0  0  0  0
 23 25  1  0  0  0  0
 23 26  1  0  0  0  0
M  END

> <ChembankId>
1478

> <SMILES>
Cc1ccc(cc1)c2cc(nn2c3ccc(cc3)S(=O)(=O)N)C(F)(F)F

> <InChI>
1/C17H14F3N3O2S/c1-11-2-4-12(5-3-11)15-10-16(17(18,19)20)22-23(15)13-6-8-14(9-7-13)26(21,24)25/h2-10H,1H3,(H2,21,24,25)

$$$$
1694
  Marvin  11101114192D          

 34 38  0  0  0  0            999 V2000
   -2.6462   -0.6979    0.0000 O   0  0  0  0  0  0  0  0  0  0  0  0
   -1.8212   -0.6979    0.0000 C   0  0  0  0  0  0  0  0  0  0  0  0
   -1.4087    0.0165    0.0000 C   0  0  0  0  0  0  0  0  0  0  0  0
   -0.5837    0.0165    0.0000 C   0  0  0  0  0  0  0  0  0  0  0  0
   -0.1712   -0.6979    0.0000 C   0  0  0  0  0  0  0  0  0  0  0  0
   -0.5837   -1.4124    0.0000 C   0  0  0  0  0  0  0  0  0  0  0  0
   -1.4087   -1.4124    0.0000 C   0  0  0  0  0  0  0  0  0  0  0  0
    0.6538   -0.6979    0.0000 C   0  0  0  0  0  0  0  0  0  0  0  0
    1.1387   -0.0305    0.0000 S   0  0  0  0  0  0  0  0  0  0  0  0
    1.9233   -0.2854    0.0000 C   0  0  0  0  0  0  0  0  0  0  0  0
    2.6378    0.1271    0.0000 C   0  0  0  0  0  0  0  0  0  0  0  0
    3.3523   -0.2854    0.0000 C   0  0  0  0  0  0  0  0  0  0  0  0
    4.0668    0.1271    0.0000 O   0  0  0  0  0  0  0  0  0  0  0  0
    3.3523   -1.1104    0.0000 C   0  0  0  0  0  0  0  0  0  0  0  0
    2.6378   -1.5229    0.0000 C   0  0  0  0  0  0  0  0  0  0  0  0
    1.9233   -1.1104    0.0000 C   0  0  0  0  0  0  0  0  0  0  0  0
    1.1387   -1.3654    0.0000 C   0  0  0  0  0  0  0  0  0  0  0  0
    0.8838   -2.1500    0.0000 C   0  0  0  0  0  0  0  0  0  0  0  0
    0.0768   -2.3215    0.0000 O   0  0  0  0  0  0  0  0  0  0  0  0
    1.4358   -2.7631    0.0000 C   0  0  0  0  0  0  0  0  0  0  0  0
    2.2428   -2.5916    0.0000 C   0  0  0  0  0  0  0  0  0  0  0  0
    2.7948   -3.2047    0.0000 C   0  0  0  0  0  0  0  0  0  0  0  0
    2.5399   -3.9893    0.0000 C   0  0  0  0  0  0  0  0  0  0  0  0
    3.0919   -4.6024    0.0000 O   0  0  0  0  0  0  0  0  0  0  0  0
    2.8370   -5.3870    0.0000 C   0  0  0  0  0  0  0  0  0  0  0  0
    3.3890   -6.0001    0.0000 C   0  0  0  0  0  0  0  0  0  0  0  0
    3.1341   -6.7847    0.0000 N   0  0  0  0  0  0  0  0  0  0  0  0
    3.6861   -7.3978    0.0000 C   0  0  0  0  0  0  0  0  0  0  0  0
    3.4312   -8.1824    0.0000 C   0  0  0  0  0  0  0  0  0  0  0  0
    2.6242   -8.3540    0.0000 C   0  0  0  0  0  0  0  0  0  0  0  0
    2.0722   -7.7409    0.0000 C   0  0  0  0  0  0  0  0  0  0  0  0
    2.3271   -6.9562    0.0000 C   0  0  0  0  0  0  0  0  0  0  0  0
    1.7329   -4.1608    0.0000 C   0  0  0  0  0  0  0  0  0  0  0  0
    1.1809   -3.5477    0.0000 C   0  0  0  0  0  0  0  0  0  0  0  0
  1  2  1  0  0  0  0
  2  3  4  0  0  0  0
  3  4  4  0  0  0  0
  4  5  4  0  0  0  0
  5  6  4  0  0  0  0
  6  7  4  0  0  0  0
  2  7  4  0  0  0  0
  5  8  1  0  0  0  0
  8  9  4  0  0  0  0
  9 10  4  0  0  0  0
 10 11  4  0  0  0  0
 11 12  4  0  0  0  0
 12 13  1  0  0  0  0
 12 14  4  0  0  0  0
 14 15  4  0  0  0  0
 15 16  4  0  0  0  0
 10 16  4  0  0  0  0
 16 17  4  0  0  0  0
  8 17  4  0  0  0  0
 17 18  1  0  0  0  0
 18 19  2  0  0  0  0
 18 20  1  0  0  0  0
 20 21  4  0  0  0  0
 21 22  4  0  0  0  0
 22 23  4  0  0  0  0
 23 24  1  0  0  0  0
 24 25  1  0  0  0  0
 25 26  1  0  0  0  0
 26 27  1  0  0  0  0
 27 28  1  0  0  0  0
 28 29  1  0  0  0  0
 29 30  1  0  0  0  0
 30 31  1  0  0  0  0
 31 32  1  0  0  0  0
 27 32  1  0  0  0  0
 23 33  4  0  0  0  0
 33 34  4  0  0  0  0
 20 34  4  0  0  0  0
M  END

> <ChembankId>
1694

> <SMILES>
Oc1ccc(cc1)c2sc3cc(O)ccc3c2C(=O)c4ccc(OCCN5CCCCC5)cc4

> <InChI>
1/C28H27NO4S/c30-21-8-4-20(5-9-21)28-26(24-13-10-22(31)18-25(24)34-28)27(32)19-6-11-23(12-7-19)33-17-16-29-14-2-1-3-15-29/h4-13,18,30-31H,1-3,14-17H2

$$$$
1378
  Marvin  11101114192D          

 11 11  0  0  0  0            999 V2000
    3.5724   -0.4125    0.0000 N   0  0  0  0  0  0  0  0  0  0  0  0
    2.8579   -0.0000    0.0000 C   0  0  0  0  0  0  0  0  0  0  0  0
    2.1434   -0.4125    0.0000 C   0  0  0  0  0  0  0  0  0  0  0  0
    1.4289   -0.0000    0.0000 C   0  0  0  0  0  0  0  0  0  0  0  0
    0.7145   -0.4125    0.0000 C   0  0  0  0  0  0  0  0  0  0  0  0
    0.0000   -0.0000    0.0000 C   0  0  0  0  0  0  0  0  0  0  0  0
    0.0000    0.8250    0.0000 C   0  0  0  0  0  0  0  0  0  0  0  0
   -0.7145    1.2375    0.0000 O   0  0  0  0  0  0  0  0  0  0  0  0
    0.7145    1.2375    0.0000 C   0  0  0  0  0  0  0  0  0  0  0  0
    0.7145    2.0625    0.0000 O   0  0  0  0  0  0  0  0  0  0  0  0
    1.4289    0.8250    0.0000 C   0  0  0  0  0  0  0  0  0  0  0  0
  1  2  1  0  0  0  0
  2  3  1  0  0  0  0
  3  4  1  0  0  0  0
  4  5  4  0  0  0  0
  5  6  4  0  0  0  0
  6  7  4  0  0  0  0
  7  8  1  0  0  0  0
  7  9  4  0  0  0  0
  9 10  1  0  0  0  0
  9 11  4  0  0  0  0
  4 11  4  0  0  0  0
M  END

> <ChembankId>
1378

> <SMILES>
NCCc1ccc(O)c(O)c1

> <InChI>
1/C8H11NO2/c9-4-3-6-1-2-7(10)8(11)5-6/h1-2,5,10-11H,3-4,9H2

$$$$
1261
  Marvin  11101114192D          

 26 28  0  0  0  0            999 V2000
   -1.1168   -5.5090    0.0000 O   0  0  0  0  0  0  0  0  0  0  0  0
   -0.8347   -4.7337    0.0000 C   0  0  0  0  0  0  0  0  0  0  0  0
   -0.8347   -3.9087    0.0000 C   0  0  0  0  0  0  0  0  0  0  0  0
   -0.1202   -3.4962    0.0000 C   0  0  0  0  0  0  0  0  0  0  0  0
    0.5943   -3.9087    0.0000 N   0  0  0  0  0  0  0  0  0  0  0  0
    1.3087   -3.4962    0.0000 C   0  0  0  0  0  0  0  0  0  0  0  0
    2.0232   -3.9087    0.0000 C   0  0  0  0  0  0  0  0  0  0  0  0
    2.7377   -3.4962    0.0000 C   0  0  0  0  0  0  0  0  0  0  0  0
    3.4521   -3.9087    0.0000 C   0  0  0  0  0  0  0  0  0  0  0  0
    3.4521   -4.7337    0.0000 O   0  0  0  0  0  0  0  0  0  0  0  0
    4.1666   -3.4962    0.0000 C   0  0  0  0  0  0  0  0  0  0  0  0
    4.1666   -2.6712    0.0000 C   0  0  0  0  0  0  0  0  0  0  0  0
    4.8811   -2.2587    0.0000 C   0  0  0  0  0  0  0  0  0  0  0  0
    5.5956   -2.6712    0.0000 C   0  0  0  0  0  0  0  0  0  0  0  0
    6.3100   -2.2587    0.0000 F   0  0  0  0  0  0  0  0  0  0  0  0
    5.5956   -3.4962    0.0000 C   0  0  0  0  0  0  0  0  0  0  0  0
    4.8811   -3.9087    0.0000 C   0  0  0  0  0  0  0  0  0  0  0  0
    0.5943   -4.7337    0.0000 C   0  0  0  0  0  0  0  0  0  0  0  0
   -0.1202   -5.1462    0.0000 C   0  0  0  0  0  0  0  0  0  0  0  0
   -1.6471   -4.5904    0.0000 C   0  0  0  0  0  0  0  0  0  0  0  0
   -2.1774   -5.2224    0.0000 C   0  0  0  0  0  0  0  0  0  0  0  0
   -2.9899   -5.0792    0.0000 C   0  0  0  0  0  0  0  0  0  0  0  0
   -3.2721   -4.3039    0.0000 C   0  0  0  0  0  0  0  0  0  0  0  0
   -4.0845   -4.1607    0.0000 Cl  0  0  0  0  0  0  0  0  0  0  0  0
   -2.7418   -3.6719    0.0000 C   0  0  0  0  0  0  0  0  0  0  0  0
   -1.9293   -3.8152    0.0000 C   0  0  0  0  0  0  0  0  0  0  0  0
  1  2  1  0  0  0  0
  2  3  1  0  0  0  0
  3  4  1  0  0  0  0
  4  5  1  0  0  0  0
  5  6  1  0  0  0  0
  6  7  1  0  0  0  0
  7  8  1  0  0  0  0
  8  9  1  0  0  0  0
  9 10  2  0  0  0  0
  9 11  1  0  0  0  0
 11 12  4  0  0  0  0
 12 13  4  0  0  0  0
 13 14  4  0  0  0  0
 14 15  1  0  0  0  0
 14 16  4  0  0  0  0
 16 17  4  0  0  0  0
 11 17  4  0  0  0  0
  5 18  1  0  0  0  0
 18 19  1  0  0  0  0
  2 19  1  0  0  0  0
  2 20  1  0  0  0  0
 20 21  4  0  0  0  0
 21 22  4  0  0  0  0
 22 23  4  0  0  0  0
 23 24  1  0  0  0  0
 23 25  4  0  0  0  0
 25 26  4  0  0  0  0
 20 26  4  0  0  0  0
M  END

> <ChembankId>
1261

> <SMILES>
OC1(CCN(CCCC(=O)c2ccc(F)cc2)CC1)c3ccc(Cl)cc3

> <InChI>
1/C21H23ClFNO2/c22-18-7-5-17(6-8-18)21(26)11-14-24(15-12-21)13-1-2-20(25)16-3-9-19(23)10-4-16/h3-10,26H,1-2,11-15H2

$$$$
1018627
  Marvin  11101114192D          

 15 15  0  0  0  0            999 V2000
   -3.5724   -2.8875    0.0000 N   0  0  0  0  0  0  0  0  0  0  0  0
   -2.8579   -3.3000    0.0000 C   0  0  0  0  0  0  0  0  0  0  0  0
   -2.8579   -4.1250    0.0000 N   0  0  0  0  0  0  0  0  0  0  0  0
   -2.1434   -2.8875    0.0000 N   0  0  0  0  0  0  0  0  0  0  0  0
   -1.4289   -3.3000    0.0000 C   0  0  0  0  0  0  0  0  0  0  0  0
   -1.4289   -4.1250    0.0000 N   0  0  0  0  0  0  0  0  0  0  0  0
   -0.7145   -2.8875    0.0000 N   0  0  0  0  0  0  0  0  0  0  0  0
    0.0000   -3.3000    0.0000 C   0  0  0  0  0  0  0  0  0  0  0  0
    0.7145   -2.8875    0.0000 C   0  0  0  0  0  0  0  0  0  0  0  0
    1.4289   -3.3000    0.0000 C   0  0  0  0  0  0  0  0  0  0  0  0
    2.1434   -2.8875    0.0000 C   0  0  0  0  0  0  0  0  0  0  0  0
    2.8579   -3.3000    0.0000 C   0  0  0  0  0  0  0  0  0  0  0  0
    2.8579   -4.1250    0.0000 C   0  0  0  0  0  0  0  0  0  0  0  0
    2.1434   -4.5375    0.0000 C   0  0  0  0  0  0  0  0  0  0  0  0
    1.4289   -4.1250    0.0000 C   0  0  0  0  0  0  0  0  0  0  0  0
  1  2  1  0  0  0  0
  2  3  2  0  0  0  0
  2  4  1  0  0  0  0
  4  5  1  0  0  0  0
  5  6  2  0  0  0  0
  5  7  1  0  0  0  0
  7  8  1  0  0  0  0
  8  9  1  0  0  0  0
  9 10  1  0  0  0  0
 10 11  4  0  0  0  0
 11 12  4  0  0  0  0
 12 13  4  0  0  0  0
 13 14  4  0  0  0  0
 14 15  4  0  0  0  0
 10 15  4  0  0  0  0
M  END

> <ChembankId>
1018627

> <SMILES>
NC(=N)NC(=N)NCCc1ccccc1

> <InChI>
1/C10H15N5/c11-9(12)15-10(13)14-7-6-8-4-2-1-3-5-8/h1-5H,6-7H2,(H6,11,12,13,14,15)

$$$$
1210
  Marvin  11101114192D          

 35 36  0  0  0  0            999 V2000
    2.1434   -1.2375    0.0000 C   0  0  0  0  0  0  0  0  0  0  0  0
    2.1434   -2.0625    0.0000 C   0  0  0  0  0  0  0  0  0  0  0  0
    1.3184   -2.0625    0.0000 C   0  0  0  0  0  0  0  0  0  0  0  0
    2.9684   -2.0625    0.0000 C   0  0  0  0  0  0  0  0  0  0  0  0
    2.1434   -2.8875    0.0000 C   0  0  0  0  0  0  0  0  0  0  0  0
    2.8579   -3.3000    0.0000 C   0  0  0  0  0  0  0  0  0  0  0  0
    2.8579   -4.1250    0.0000 C   0  0  0  0  0  0  0  0  0  0  0  0
    3.5724   -4.5375    0.0000 S   0  0  0  0  0  0  0  0  0  0  0  0
    4.2868   -4.1250    0.0000 C   0  0  0  0  0  0  0  0  0  0  0  0
    4.6993   -4.8395    0.0000 C   0  0  0  0  0  0  0  0  0  0  0  0
    3.8743   -3.4105    0.0000 C   0  0  0  0  0  0  0  0  0  0  0  0
    5.0013   -3.7125    0.0000 S   0  0  0  0  0  0  0  0  0  0  0  0
    5.7158   -4.1250    0.0000 C   0  0  0  0  0  0  0  0  0  0  0  0
    6.4302   -3.7125    0.0000 C   0  0  0  0  0  0  0  0  0  0  0  0
    7.1447   -4.1250    0.0000 C   0  0  0  0  0  0  0  0  0  0  0  0
    7.1447   -4.9500    0.0000 C   0  0  0  0  0  0  0  0  0  0  0  0
    7.8592   -5.3625    0.0000 O   0  0  0  0  0  0  0  0  0  0  0  0
    6.4302   -5.3625    0.0000 C   0  0  0  0  0  0  0  0  0  0  0  0
    5.7158   -4.9500    0.0000 C   0  0  0  0  0  0  0  0  0  0  0  0
    6.4302   -6.1875    0.0000 C   0  0  0  0  0  0  0  0  0  0  0  0
    6.4302   -7.0125    0.0000 C   0  0  0  0  0  0  0  0  0  0  0  0
    5.6052   -6.1875    0.0000 C   0  0  0  0  0  0  0  0  0  0  0  0
    7.2552   -6.1875    0.0000 C   0  0  0  0  0  0  0  0  0  0  0  0
    7.8592   -3.7125    0.0000 C   0  0  0  0  0  0  0  0  0  0  0  0
    8.5737   -3.3000    0.0000 C   0  0  0  0  0  0  0  0  0  0  0  0
    8.2717   -4.4270    0.0000 C   0  0  0  0  0  0  0  0  0  0  0  0
    7.4467   -2.9980    0.0000 C   0  0  0  0  0  0  0  0  0  0  0  0
    2.1434   -4.5375    0.0000 C   0  0  0  0  0  0  0  0  0  0  0  0
    1.4289   -4.1250    0.0000 C   0  0  0  0  0  0  0  0  0  0  0  0
    1.4289   -3.3000    0.0000 C   0  0  0  0  0  0  0  0  0  0  0  0
    0.7145   -2.8875    0.0000 O   0  0  0  0  0  0  0  0  0  0  0  0
    0.7145   -4.5375    0.0000 C   0  0  0  0  0  0  0  0  0  0  0  0
    0.0000   -4.9500    0.0000 C   0  0  0  0  0  0  0  0  0  0  0  0
    0.3020   -3.8230    0.0000 C   0  0  0  0  0  0  0  0  0  0  0  0
    1.1270   -5.2520    0.0000 C   0  0  0  0  0  0  0  0  0  0  0  0
  1  2  1  0  0  0  0
  2  3  1  0  0  0  0
  2  4  1  0  0  0  0
  2  5  1  0  0  0  0
  5  6  4  0  0  0  0
  6  7  4  0  0  0  0
  7  8  1  0  0  0  0
  8  9  1  0  0  0  0
  9 10  1  0  0  0  0
  9 11  1  0  0  0  0
  9 12  1  0  0  0  0
 12 13  1  0  0  0  0
 13 14  4  0  0  0  0
 14 15  4  0  0  0  0
 15 16  4  0  0  0  0
 16 17  1  0  0  0  0
 16 18  4  0  0  0  0
 18 19  4  0  0  0  0
 13 19  4  0  0  0  0
 18 20  1  0  0  0  0
 20 21  1  0  0  0  0
 20 22  1  0  0  0  0
 20 23  1  0  0  0  0
 15 24  1  0  0  0  0
 24 25  1  0  0  0  0
 24 26  1  0  0  0  0
 24 27  1  0  0  0  0
  7 28  4  0  0  0  0
 28 29  4  0  0  0  0
 29 30  4  0  0  0  0
  5 30  4  0  0  0  0
 30 31  1  0  0  0  0
 29 32  1  0  0  0  0
 32 33  1  0  0  0  0
 32 34  1  0  0  0  0
 32 35  1  0  0  0  0
M  END

> <ChembankId>
1210

> <SMILES>
CC(C)(C)c1cc(SC(C)(C)Sc2cc(c(O)c(c2)C(C)(C)C)C(C)(C)C)cc(c1O)C(C)(C)C

> <InChI>
1/C31H48O2S2/c1-27(2,3)21-15-19(16-22(25(21)32)28(4,5)6)34-31(13,14)35-20-17-23(29(7,8)9)26(33)24(18-20)30(10,11)12/h15-18,32-33H,1-14H3

$$$$
905
  Marvin  11101114192D          

 44 47  0  0  1  0            999 V2000
    0.7145   -5.3625    0.0000 C   0  0  0  0  0  0  0  0  0  0  0  0
    0.0000   -4.9500    0.0000 O   0  0  0  0  0  0  0  0  0  0  0  0
    0.0000   -4.1250    0.0000 C   0  0  2  0  0  0  0  0  0  0  0  0
   -0.7145   -3.7125    0.0000 C   0  0  1  0  0  0  0  0  0  0  0  0
   -1.4289   -4.1250    0.0000 O   0  0  0  0  0  0  0  0  0  0  0  0
   -1.4289   -4.9500    0.0000 C   0  0  0  0  0  0  0  0  0  0  0  0
   -0.7145   -5.3625    0.0000 O   0  0  0  0  0  0  0  0  0  0  0  0
   -2.1434   -5.3625    0.0000 N   0  0  0  0  0  0  0  0  0  0  0  0
   -0.7145   -2.8875    0.0000 C   0  0  1  0  0  0  0  0  0  0  0  0
   -1.4289   -2.4750    0.0000 O   0  0  0  0  0  0  0  0  0  0  0  0
    0.0000   -2.4750    0.0000 C   0  0  2  0  0  0  0  0  0  0  0  0
    0.0000   -1.6500    0.0000 O   0  0  0  0  0  0  0  0  0  0  0  0
    0.7145   -1.2375    0.0000 C   0  0  0  0  0  0  0  0  0  0  0  0
    0.7145   -0.4125    0.0000 C   0  0  0  0  0  0  0  0  0  0  0  0
    1.4289    0.0000    0.0000 C   0  0  0  0  0  0  0  0  0  0  0  0
    2.1434   -0.4125    0.0000 C   0  0  0  0  0  0  0  0  0  0  0  0
    2.8579    0.0000    0.0000 C   0  0  0  0  0  0  0  0  0  0  0  0
    2.8579    0.8250    0.0000 O   0  0  0  0  0  0  0  0  0  0  0  0
    3.5724   -0.4125    0.0000 C   0  0  0  0  0  0  0  0  0  0  0  0
    4.2868   -0.0000    0.0000 N   0  0  0  0  0  0  0  0  0  0  0  0
    5.0013   -0.4125    0.0000 C   0  0  0  0  0  0  0  0  0  0  0  0
    5.0013   -1.2375    0.0000 O   0  0  0  0  0  0  0  0  0  0  0  0
    5.7158   -0.0000    0.0000 C   0  0  0  0  0  0  0  0  0  0  0  0
    5.7158    0.8250    0.0000 C   0  0  0  0  0  0  0  0  0  0  0  0
    6.4302    1.2375    0.0000 C   0  0  0  0  0  0  0  0  0  0  0  0
    7.1447    0.8250    0.0000 C   0  0  0  0  0  0  0  0  0  0  0  0
    7.8592    1.2375    0.0000 O   0  0  0  0  0  0  0  0  0  0  0  0
    7.1447   -0.0000    0.0000 C   0  0  0  0  0  0  0  0  0  0  0  0
    7.8592   -0.4125    0.0000 C   0  0  0  0  0  0  0  0  0  0  0  0
    8.5737   -0.0000    0.0000 C   0  0  0  0  0  0  0  0  0  0  0  0
    9.2881   -0.4125    0.0000 C   0  0  0  0  0  0  0  0  0  0  0  0
   10.0026   -0.0000    0.0000 C   0  0  0  0  0  0  0  0  0  0  0  0
    9.2881   -1.2375    0.0000 C   0  0  0  0  0  0  0  0  0  0  0  0
    6.4302   -0.4125    0.0000 C   0  0  0  0  0  0  0  0  0  0  0  0
    3.5724   -1.2375    0.0000 C   0  0  0  0  0  0  0  0  0  0  0  0
    4.2868   -1.6500    0.0000 O   0  0  0  0  0  0  0  0  0  0  0  0
    2.8579   -1.6500    0.0000 O   0  0  0  0  0  0  0  0  0  0  0  0
    2.1434   -1.2375    0.0000 C   0  0  0  0  0  0  0  0  0  0  0  0
    1.4289   -1.6500    0.0000 C   0  0  0  0  0  0  0  0  0  0  0  0
    1.4289   -2.4750    0.0000 C   0  0  0  0  0  0  0  0  0  0  0  0
    0.7145   -2.8875    0.0000 O   0  0  0  0  0  0  0  0  0  0  0  0
    0.7145   -3.7125    0.0000 C   0  0  0  0  0  0  0  0  0  0  0  0
    1.5390   -3.7413    0.0000 C   0  0  0  0  0  0  0  0  0  0  0  0
    1.1517   -4.4121    0.0000 C   0  0  0  0  0  0  0  0  0  0  0  0
  1  2  1  0  0  0  0
  3  2  1  6  0  0  0
  3  4  1  0  0  0  0
  4  5  1  1  0  0  0
  5  6  1  0  0  0  0
  6  7  2  0  0  0  0
  6  8  1  0  0  0  0
  4  9  1  0  0  0  0
  9 10  1  1  0  0  0
  9 11  1  0  0  0  0
 11 12  1  6  0  0  0
 12 13  1  0  0  0  0
 13 14  4  0  0  0  0
 14 15  4  0  0  0  0
 15 16  4  0  0  0  0
 16 17  4  0  0  0  0
 17 18  1  0  0  0  0
 17 19  4  0  0  0  0
 19 20  1  0  0  0  0
 20 21  1  0  0  0  0
 21 22  2  0  0  0  0
 21 23  1  0  0  0  0
 23 24  4  0  0  0  0
 24 25  4  0  0  0  0
 25 26  4  0  0  0  0
 26 27  1  0  0  0  0
 26 28  4  0  0  0  0
 28 29  1  0  0  0  0
 29 30  1  0  0  0  0
 30 31  2  0  0  0  0
 31 32  1  0  0  0  0
 31 33  1  0  0  0  0
 28 34  4  0  0  0  0
 23 34  4  0  0  0  0
 19 35  4  0  0  0  0
 35 36  2  0  0  0  0
 35 37  4  0  0  0  0
 37 38  4  0  0  0  0
 16 38  4  0  0  0  0
 38 39  4  0  0  0  0
 13 39  4  0  0  0  0
 39 40  1  0  0  0  0
 11 41  1  0  0  0  0
 41 42  1  0  0  0  0
  3 42  1  0  0  0  0
 42 43  1  0  0  0  0
 42 44  1  0  0  0  0
M  END

> <ChembankId>
905

> <SMILES>
CO[C@@H]1[C@@H](OC(=O)N)[C@@H](O)[C@H](Oc2ccc3c(O)c(NC(=O)c4ccc(O)c(CC=C(C)C)c4)c(=O)oc3c2C)OC1(C)C

> <InChI>
1/C31H36N2O11/c1-14(2)7-8-16-13-17(9-11-19(16)34)27(37)33-21-22(35)18-10-12-20(15(3)24(18)42-28(21)38)41-29-23(36)25(43-30(32)39)26(40-6)31(4,5)44-29/h7,9-13,23,25-26,29,34-36H,8H2,1-6H3,(H2,32,39)(H,33,37)

$$$$
1778
  Marvin  11101114192D          

 11 11  0  0  0  0            999 V2000
    2.1434   -0.4125    0.0000 N   0  0  0  0  0  0  0  0  0  0  0  0
    1.4289   -0.0000    0.0000 C   0  0  0  0  0  0  0  0  0  0  0  0
    0.7145   -0.4125    0.0000 C   0  0  0  0  0  0  0  0  0  0  0  0
    0.0000   -0.0000    0.0000 C   0  0  0  0  0  0  0  0  0  0  0  0
    0.0000    0.8250    0.0000 C   0  0  0  0  0  0  0  0  0  0  0  0
   -0.7145    1.2375    0.0000 O   0  0  0  0  0  0  0  0  0  0  0  0
    0.7145    1.2375    0.0000 C   0  0  0  0  0  0  0  0  0  0  0  0
    1.4289    0.8250    0.0000 C   0  0  0  0  0  0  0  0  0  0  0  0
    0.7145    2.0625    0.0000 C   0  0  0  0  0  0  0  0  0  0  0  0
    1.4289    2.4750    0.0000 O   0  0  0  0  0  0  0  0  0  0  0  0
   -0.0000    2.4750    0.0000 O   0  0  0  0  0  0  0  0  0  0  0  0
  1  2  1  0  0  0  0
  2  3  4  0  0  0  0
  3  4  4  0  0  0  0
  4  5  4  0  0  0  0
  5  6  1  0  0  0  0
  5  7  4  0  0  0  0
  7  8  4  0  0  0  0
  2  8  4  0  0  0  0
  7  9  1  0  0  0  0
  9 10  2  0  0  0  0
  9 11  1  0  0  0  0
M  END

> <ChembankId>
1778

> <SMILES>
Nc1ccc(O)c(c1)C(=O)O

> <InChI>
1/C7H7NO3/c8-4-1-2-6(9)5(3-4)7(10)11/h1-3,9H,8H2,(H,10,11)

$$$$
745
  Marvin  11101114192D          

 39 38  0  0  0  0            999 V2000
   16.6105   10.4151    0.0000 C   0  0  0  0  0  0  0  0  0  0  0  0
   17.3250   10.0026    0.0000 C   0  0  0  0  0  0  0  0  0  0  0  0
   17.3250    9.1776    0.0000 O   0  0  0  0  0  0  0  0  0  0  0  0
   18.0395   10.4151    0.0000 N   0  0  0  0  0  0  0  0  0  0  0  0
   18.0395   11.2401    0.0000 O   0  0  0  0  0  0  0  0  0  0  0  0
   18.7539   10.0026    0.0000 C   0  0  0  0  0  0  0  0  0  0  0  0
   19.4684   10.4151    0.0000 C   0  0  0  0  0  0  0  0  0  0  0  0
   20.1829   10.0026    0.0000 C   0  0  0  0  0  0  0  0  0  0  0  0
   20.8974   10.4151    0.0000 C   0  0  0  0  0  0  0  0  0  0  0  0
   21.6118   10.0026    0.0000 C   0  0  0  0  0  0  0  0  0  0  0  0
   22.3263   10.4151    0.0000 N   0  0  0  0  0  0  0  0  0  0  0  0
   23.0408   10.0026    0.0000 C   0  0  0  0  0  0  0  0  0  0  0  0
   23.0408    9.1776    0.0000 O   0  0  0  0  0  0  0  0  0  0  0  0
   23.7552   10.4151    0.0000 C   0  0  0  0  0  0  0  0  0  0  0  0
   24.4697   10.0026    0.0000 C   0  0  0  0  0  0  0  0  0  0  0  0
   25.1842   10.4151    0.0000 C   0  0  0  0  0  0  0  0  0  0  0  0
   25.1842   11.2401    0.0000 O   0  0  0  0  0  0  0  0  0  0  0  0
   25.8987   10.0026    0.0000 N   0  0  0  0  0  0  0  0  0  0  0  0
   25.8987    9.1776    0.0000 O   0  0  0  0  0  0  0  0  0  0  0  0
   26.6131   10.4151    0.0000 C   0  0  0  0  0  0  0  0  0  0  0  0
   27.3276   10.0026    0.0000 C   0  0  0  0  0  0  0  0  0  0  0  0
   28.0421   10.4151    0.0000 C   0  0  0  0  0  0  0  0  0  0  0  0
   28.7565   10.0026    0.0000 C   0  0  0  0  0  0  0  0  0  0  0  0
   29.4710   10.4151    0.0000 C   0  0  0  0  0  0  0  0  0  0  0  0
   30.1855   10.0026    0.0000 N   0  0  0  0  0  0  0  0  0  0  0  0
   30.8999   10.4151    0.0000 C   0  0  0  0  0  0  0  0  0  0  0  0
   30.8999   11.2401    0.0000 O   0  0  0  0  0  0  0  0  0  0  0  0
   31.6144   10.0026    0.0000 C   0  0  0  0  0  0  0  0  0  0  0  0
   32.3289   10.4151    0.0000 C   0  0  0  0  0  0  0  0  0  0  0  0
   33.0434   10.0026    0.0000 C   0  0  0  0  0  0  0  0  0  0  0  0
   33.0434    9.1776    0.0000 O   0  0  0  0  0  0  0  0  0  0  0  0
   33.7578   10.4151    0.0000 N   0  0  0  0  0  0  0  0  0  0  0  0
   33.7578   11.2401    0.0000 O   0  0  0  0  0  0  0  0  0  0  0  0
   34.4723   10.0026    0.0000 C   0  0  0  0  0  0  0  0  0  0  0  0
   35.1868   10.4151    0.0000 C   0  0  0  0  0  0  0  0  0  0  0  0
   35.9012   10.0026    0.0000 C   0  0  0  0  0  0  0  0  0  0  0  0
   36.6157   10.4151    0.0000 C   0  0  0  0  0  0  0  0  0  0  0  0
   37.3302   10.0026    0.0000 C   0  0  0  0  0  0  0  0  0  0  0  0
   38.0447   10.4151    0.0000 N   0  0  0  0  0  0  0  0  0  0  0  0
  1  2  1  0  0  0  0
  2  3  2  0  0  0  0
  2  4  1  0  0  0  0
  4  5  1  0  0  0  0
  4  6  1  0  0  0  0
  6  7  1  0  0  0  0
  7  8  1  0  0  0  0
  8  9  1  0  0  0  0
  9 10  1  0  0  0  0
 10 11  1  0  0  0  0
 11 12  1  0  0  0  0
 12 13  2  0  0  0  0
 12 14  1  0  0  0  0
 14 15  1  0  0  0  0
 15 16  1  0  0  0  0
 16 17  2  0  0  0  0
 16 18  1  0  0  0  0
 18 19  1  0  0  0  0
 18 20  1  0  0  0  0
 20 21  1  0  0  0  0
 21 22  1  0  0  0  0
 22 23  1  0  0  0  0
 23 24  1  0  0  0  0
 24 25  1  0  0  0  0
 25 26  1  0  0  0  0
 26 27  2  0  0  0  0
 26 28  1  0  0  0  0
 28 29  1  0  0  0  0
 29 30  1  0  0  0  0
 30 31  2  0  0  0  0
 30 32  1  0  0  0  0
 32 33  1  0  0  0  0
 32 34  1  0  0  0  0
 34 35  1  0  0  0  0
 35 36  1  0  0  0  0
 36 37  1  0  0  0  0
 37 38  1  0  0  0  0
 38 39  1  0  0  0  0
M  END

> <ChembankId>
745

> <SMILES>
CC(=O)N(O)CCCCCNC(=O)CCC(=O)N(O)CCCCCNC(=O)CCC(=O)N(O)CCCCCN

> <InChI>
1/C25H48N6O8/c1-21(32)29(37)18-9-3-6-16-27-22(33)12-14-25(36)31(39)20-10-4-7-17-28-23(34)11-13-24(35)30(38)19-8-2-5-15-26/h37-39H,2-20,26H2,1H3,(H,27,33)(H,28,34)

$$$$
2463
  Marvin  11101114192D          

 47 51  0  0  1  0            999 V2000
   -1.8291   -1.5890    0.0000 C   0  0  0  0  0  0  0  0  0  0  0  0
   -2.3811   -0.9759    0.0000 C   0  0  0  0  0  0  0  0  0  0  0  0
   -2.1262   -0.1913    0.0000 C   0  0  1  0  0  0  0  0  0  0  0  0
   -2.0400    0.6292    0.0000 C   0  0  0  0  0  0  0  0  0  0  0  0
   -1.2330    0.8007    0.0000 C   0  0  0  0  0  0  0  0  0  0  0  0
   -0.8205    0.0862    0.0000 C   0  0  0  0  0  0  0  0  0  0  0  0
   -1.3725   -0.5269    0.0000 O   0  0  0  0  0  0  0  0  0  0  0  0
   -0.0000    0.0000    0.0000 C   0  0  1  0  0  0  0  0  0  0  0  0
   -0.1715   -0.8070    0.0000 C   0  0  0  0  0  0  0  0  0  0  0  0
   -0.0000    0.8250    0.0000 C   0  0  0  0  0  0  0  0  0  0  0  0
    0.7846    1.0799    0.0000 C   0  0  0  0  0  0  0  0  0  0  0  0
    1.2695    0.4125    0.0000 C   0  0  2  0  0  0  0  0  0  0  0  0
    1.6820    1.1270    0.0000 C   0  0  0  0  0  0  0  0  0  0  0  0
    2.5070    1.1270    0.0000 C   0  0  1  0  0  0  0  0  0  0  0  0
    2.9195    1.8414    0.0000 O   0  0  0  0  0  0  0  0  0  0  0  0
    2.9195    0.4125    0.0000 C   0  0  2  0  0  0  0  0  0  0  0  0
    3.7445    0.4125    0.0000 C   0  0  0  0  0  0  0  0  0  0  0  0
    2.5070   -0.3020    0.0000 C   0  0  0  0  0  0  0  0  0  0  0  0
    1.6820   -0.3020    0.0000 O   0  0  0  0  0  0  0  0  0  0  0  0
    2.9195   -1.0164    0.0000 C   0  0  2  0  0  0  0  0  0  0  0  0
    2.5070   -1.7309    0.0000 C   0  0  0  0  0  0  0  0  0  0  0  0
    3.7445   -1.0164    0.0000 C   0  0  2  0  0  0  0  0  0  0  0  0
    4.1570   -0.3020    0.0000 O   0  0  0  0  0  0  0  0  0  0  0  0
    4.9820   -0.3020    0.0000 C   0  0  0  0  0  0  0  0  0  0  0  0
    4.1570   -1.7309    0.0000 C   0  0  0  0  0  0  0  0  0  0  0  0
    3.7445   -2.4454    0.0000 C   0  0  0  0  0  0  0  0  0  0  0  0
    4.9820   -1.7309    0.0000 C   0  0  0  0  0  0  0  0  0  0  0  0
    5.3945   -2.4454    0.0000 O   0  0  0  0  0  0  0  0  0  0  0  0
    5.3945   -1.0164    0.0000 O   0  0  0  0  0  0  0  0  0  0  0  0
    0.7846   -0.2549    0.0000 O   0  0  0  0  0  0  0  0  0  0  0  0
   -2.9332   -0.0198    0.0000 C   0  0  0  0  0  0  0  0  0  0  0  0
   -3.5463   -0.5718    0.0000 O   0  0  0  0  0  0  0  0  0  0  0  0
   -4.2607   -0.1593    0.0000 C   0  0  0  0  0  0  0  0  0  0  0  0
   -4.0892    0.6477    0.0000 C   0  0  0  0  0  0  0  0  0  0  0  0
   -3.2687    0.7339    0.0000 C   0  0  1  0  0  0  0  0  0  0  0  0
   -2.8562    1.4484    0.0000 C   0  0  0  0  0  0  0  0  0  0  0  0
   -5.0144   -0.4949    0.0000 C   0  0  0  0  0  0  0  0  0  0  0  0
   -5.1006   -1.3153    0.0000 O   0  0  0  0  0  0  0  0  0  0  0  0
   -5.8543   -1.6509    0.0000 C   0  0  1  0  0  0  0  0  0  0  0  0
   -5.3930   -2.3349    0.0000 O   0  0  0  0  0  0  0  0  0  0  0  0
   -6.4478   -2.2240    0.0000 C   0  0  0  0  0  0  0  0  0  0  0  0
   -7.2408   -1.9966    0.0000 O   0  0  0  0  0  0  0  0  0  0  0  0
   -6.5218   -1.1660    0.0000 C   0  0  2  0  0  0  0  0  0  0  0  0
   -7.2754   -1.5015    0.0000 C   0  0  0  0  0  0  0  0  0  0  0  0
   -6.4355   -0.3455    0.0000 C   0  0  0  0  0  0  0  0  0  0  0  0
   -5.6818   -0.0099    0.0000 C   0  0  2  0  0  0  0  0  0  0  0  0
   -5.5956    0.8105    0.0000 C   0  0  0  0  0  0  0  0  0  0  0  0
  1  2  1  0  0  0  0
  3  2  1  1  0  0  0
  3  4  1  0  0  0  0
  4  5  1  0  0  0  0
  5  6  1  0  0  0  0
  6  7  1  0  0  0  0
  3  7  1  0  0  0  0
  8  6  1  1  0  0  0
  8  9  1  6  0  0  0
  8 10  1  0  0  0  0
 10 11  1  0  0  0  0
 11 12  1  0  0  0  0
 12 13  1  1  0  0  0
 13 14  1  0  0  0  0
 14 15  1  1  0  0  0
 14 16  1  0  0  0  0
 16 17  1  6  0  0  0
 16 18  1  0  0  0  0
 18 19  1  0  0  0  0
 12 19  1  0  0  0  0
 18 20  1  0  0  0  0
 20 21  1  1  0  0  0
 20 22  1  0  0  0  0
 22 23  1  6  0  0  0
 23 24  1  0  0  0  0
 22 25  1  0  0  0  0
 25 26  1  0  0  0  0
 25 27  1  0  0  0  0
 27 28  2  0  0  0  0
 27 29  1  0  0  0  0
 12 30  1  0  0  0  0
  8 30  1  0  0  0  0
  3 31  1  6  0  0  0
 31 32  1  0  0  0  0
 32 33  1  0  0  0  0
 33 34  1  0  0  0  0
 34 35  1  0  0  0  0
 31 35  1  0  0  0  0
 35 36  1  1  0  0  0
 33 37  1  0  0  0  0
 37 38  1  0  0  0  0
 38 39  1  0  0  0  0
 39 40  1  6  0  0  0
 39 41  1  1  0  0  0
 41 42  1  0  0  0  0
 39 43  1  0  0  0  0
 43 44  1  6  0  0  0
 43 45  1  0  0  0  0
 45 46  1  0  0  0  0
 37 46  1  0  0  0  0
 46 47  1  6  0  0  0
M  END

> <ChembankId>
2463

> <SMILES>
CC[C@]1(CCC(O1)[C@@]2(C)CC[C@@]3(C[C@@H](O)[C@H](C)C(O3)[C@H](C)[C@H](OC)C(C)C(=O)O)O2)C4OC(C[C@H]4C)C5O[C@@](O)(CO)[C@H](C)C[C@@H]5C

> <InChI>
1/C36H62O11/c1-10-34(31-20(3)16-26(43-31)28-19(2)15-21(4)36(41,18-37)46-28)12-11-27(44-34)33(8)13-14-35(47-33)17-25(38)22(5)30(45-35)23(6)29(42-9)24(7)32(39)40/h19-31,37-38,41H,10-18H2,1-9H3,(H,39,40)/t19-,20+,21-,22+,23-,24-,25-,26-,27-,28-,29+,30-,31+,33+,34-,35-,36-/m0/s1

$$$$
763
  Marvin  11101114192D          

 28 30  0  0  0  0            999 V2000
    2.4922    4.9598    0.0000 C   0  0  0  0  0  0  0  0  0  0  0  0
    3.3023    5.1157    0.0000 C   0  0  0  0  0  0  0  0  0  0  0  0
    3.8424    4.4921    0.0000 N   0  0  0  0  0  0  0  0  0  0  0  0
    3.5724    3.7125    0.0000 C   0  0  0  0  0  0  0  0  0  0  0  0
    2.7622    3.5566    0.0000 C   0  0  0  0  0  0  0  0  0  0  0  0
    4.6525    4.6480    0.0000 C   0  0  0  0  0  0  0  0  0  0  0  0
    5.1926    4.0243    0.0000 C   0  0  0  0  0  0  0  0  0  0  0  0
    6.0028    4.1802    0.0000 C   0  0  0  0  0  0  0  0  0  0  0  0
    6.5428    3.5566    0.0000 C   0  0  0  0  0  0  0  0  0  0  0  0
    6.2728    2.7770    0.0000 C   0  0  0  0  0  0  0  0  0  0  0  0
    7.3530    3.7125    0.0000 N   0  0  0  0  0  0  0  0  0  0  0  0
    7.8931    3.0889    0.0000 C   0  0  0  0  0  0  0  0  0  0  0  0
    8.7032    3.2448    0.0000 C   0  0  0  0  0  0  0  0  0  0  0  0
    8.9732    4.0243    0.0000 C   0  0  0  0  0  0  0  0  0  0  0  0
    9.7834    4.1802    0.0000 C   0  0  0  0  0  0  0  0  0  0  0  0
   10.3235    3.5566    0.0000 C   0  0  0  0  0  0  0  0  0  0  0  0
   11.1336    3.7125    0.0000 Cl  0  0  0  0  0  0  0  0  0  0  0  0
   10.0534    2.7770    0.0000 C   0  0  0  0  0  0  0  0  0  0  0  0
    9.2433    2.6211    0.0000 C   0  0  0  0  0  0  0  0  0  0  0  0
    8.9732    1.8416    0.0000 N   0  0  0  0  0  0  0  0  0  0  0  0
    8.1631    1.6857    0.0000 C   0  0  0  0  0  0  0  0  0  0  0  0
    7.8931    0.9061    0.0000 C   0  0  0  0  0  0  0  0  0  0  0  0
    7.0829    0.7502    0.0000 C   0  0  0  0  0  0  0  0  0  0  0  0
    6.5428    1.3738    0.0000 C   0  0  0  0  0  0  0  0  0  0  0  0
    5.7327    1.2179    0.0000 O   0  0  0  0  0  0  0  0  0  0  0  0
    5.1926    1.8416    0.0000 C   0  0  0  0  0  0  0  0  0  0  0  0
    6.8129    2.1534    0.0000 C   0  0  0  0  0  0  0  0  0  0  0  0
    7.6230    2.3093    0.0000 C   0  0  0  0  0  0  0  0  0  0  0  0
  1  2  1  0  0  0  0
  2  3  1  0  0  0  0
  3  4  1  0  0  0  0
  4  5  1  0  0  0  0
  3  6  1  0  0  0  0
  6  7  1  0  0  0  0
  7  8  1  0  0  0  0
  8  9  1  0  0  0  0
  9 10  1  0  0  0  0
  9 11  1  0  0  0  0
 11 12  1  0  0  0  0
 12 13  4  0  0  0  0
 13 14  4  0  0  0  0
 14 15  4  0  0  0  0
 15 16  4  0  0  0  0
 16 17  1  0  0  0  0
 16 18  4  0  0  0  0
 18 19  4  0  0  0  0
 13 19  4  0  0  0  0
 19 20  4  0  0  0  0
 20 21  4  0  0  0  0
 21 22  4  0  0  0  0
 22 23  4  0  0  0  0
 23 24  4  0  0  0  0
 24 25  1  0  0  0  0
 25 26  1  0  0  0  0
 24 27  4  0  0  0  0
 27 28  4  0  0  0  0
 12 28  4  0  0  0  0
 21 28  4  0  0  0  0
M  END

> <ChembankId>
763

> <SMILES>
CCN(CC)CCCC(C)Nc1c2ccc(Cl)cc2nc3ccc(OC)cc13

> <InChI>
1/C23H30ClN3O/c1-5-27(6-2)13-7-8-16(3)25-23-19-11-9-17(24)14-22(19)26-21-12-10-18(28-4)15-20(21)23/h9-12,14-16H,5-8,13H2,1-4H3,(H,25,26)

$$$$
346
  Marvin  11101114192D          

 62 68  0  0  1  0            999 V2000
    3.2975    0.6375    0.0000 C   0  0  0  0  0  0  0  0  0  0  0  0
    2.5088    0.8795    0.0000 C   0  0  0  0  0  0  0  0  0  0  0  0
    2.3240    1.6835    0.0000 O   0  0  0  0  0  0  0  0  0  0  0  0
    1.9049    0.3174    0.0000 O   0  0  0  0  0  0  0  0  0  0  0  0
    2.0897   -0.4866    0.0000 C   0  0  2  0  0  0  0  0  0  0  0  0
    1.4728   -0.8281    0.0000 C   0  0  0  0  0  0  0  0  0  0  0  0
    0.5791   -0.6364    0.0000 C   0  0  0  0  0  0  0  0  0  0  0  0
    0.3271    0.1492    0.0000 C   0  0  0  0  0  0  0  0  0  0  0  0
    0.1142   -1.1468    0.0000 C   0  0  2  0  0  0  0  0  0  0  0  0
    0.9262   -1.5882    0.0000 C   0  0  0  0  0  0  0  0  0  0  0  0
    1.6462   -1.3040    0.0000 C   0  0  1  0  0  0  0  0  0  0  0  0
    1.6817   -2.1282    0.0000 O   0  0  0  0  0  0  0  0  0  0  0  0
    2.4856   -1.5544    0.0000 C   0  0  1  0  0  0  0  0  0  0  0  0
    2.4412   -2.3782    0.0000 O   0  0  0  0  0  0  0  0  0  0  0  0
    1.7055   -2.7516    0.0000 C   0  0  0  0  0  0  0  0  0  0  0  0
    1.0143   -2.3012    0.0000 O   0  0  0  0  0  0  0  0  0  0  0  0
    1.6611   -3.5754    0.0000 C   0  0  0  0  0  0  0  0  0  0  0  0
    2.3523   -4.0258    0.0000 C   0  0  0  0  0  0  0  0  0  0  0  0
    2.3078   -4.8496    0.0000 C   0  0  0  0  0  0  0  0  0  0  0  0
    1.5722   -5.2230    0.0000 C   0  0  0  0  0  0  0  0  0  0  0  0
    0.8810   -4.7726    0.0000 C   0  0  0  0  0  0  0  0  0  0  0  0
    0.9254   -3.9488    0.0000 C   0  0  0  0  0  0  0  0  0  0  0  0
    3.3539   -1.3945    0.0000 C   0  0  0  0  0  0  0  0  0  0  0  0
    3.7825   -2.0994    0.0000 C   0  0  2  0  0  0  0  0  0  0  0  0
    3.8012   -2.9242    0.0000 C   0  0  0  0  0  0  0  0  0  0  0  0
    4.6260   -2.9055    0.0000 O   0  0  0  0  0  0  0  0  0  0  0  0
    4.6073   -2.0807    0.0000 C   0  0  2  0  0  0  0  0  0  0  0  0
    5.0035   -1.3571    0.0000 C   0  0  0  0  0  0  0  0  0  0  0  0
    4.5749   -0.6521    0.0000 C   0  0  2  0  0  0  0  0  0  0  0  0
    4.9711    0.0715    0.0000 O   0  0  0  0  0  0  0  0  0  0  0  0
    3.7501   -0.6709    0.0000 C   0  0  2  0  0  0  0  0  0  0  0  0
    3.8170    0.1514    0.0000 C   0  0  0  0  0  0  0  0  0  0  0  0
    3.0381   -0.5376    0.0000 C   0  0  0  0  0  0  0  0  0  0  0  0
    3.1363    0.2815    0.0000 O   0  0  0  0  0  0  0  0  0  0  0  0
    2.9907   -2.3310    0.0000 O   0  0  0  0  0  0  0  0  0  0  0  0
    2.7953   -3.1325    0.0000 C   0  0  0  0  0  0  0  0  0  0  0  0
    3.3917   -3.7025    0.0000 O   0  0  0  0  0  0  0  0  0  0  0  0
    2.0034   -3.3641    0.0000 C   0  0  0  0  0  0  0  0  0  0  0  0
    1.6583   -0.1073    0.0000 C   0  0  0  0  0  0  0  0  0  0  0  0
    1.8283    0.7000    0.0000 C   0  0  0  0  0  0  0  0  0  0  0  0
    1.2104    0.5856    0.0000 C   0  0  0  0  0  0  0  0  0  0  0  0
   -0.6993   -1.2840    0.0000 O   0  0  0  0  0  0  0  0  0  0  0  0
   -0.9873   -2.0571    0.0000 C   0  0  0  0  0  0  0  0  0  0  0  0
   -0.4617   -2.6930    0.0000 O   0  0  0  0  0  0  0  0  0  0  0  0
   -1.8008   -2.1943    0.0000 C   0  0  2  0  0  0  0  0  0  0  0  0
   -2.3263   -1.5583    0.0000 O   0  0  0  0  0  0  0  0  0  0  0  0
   -2.0887   -2.9674    0.0000 C   0  0  1  0  0  0  0  0  0  0  0  0
   -2.9023   -3.1046    0.0000 N   0  0  0  0  0  0  0  0  0  0  0  0
   -3.1902   -3.8777    0.0000 C   0  0  0  0  0  0  0  0  0  0  0  0
   -2.6647   -4.5136    0.0000 O   0  0  0  0  0  0  0  0  0  0  0  0
   -4.0037   -4.0149    0.0000 C   0  0  0  0  0  0  0  0  0  0  0  0
   -4.2917   -4.7880    0.0000 C   0  0  0  0  0  0  0  0  0  0  0  0
   -5.1052   -4.9251    0.0000 C   0  0  0  0  0  0  0  0  0  0  0  0
   -5.6308   -4.2892    0.0000 C   0  0  0  0  0  0  0  0  0  0  0  0
   -5.3428   -3.5161    0.0000 C   0  0  0  0  0  0  0  0  0  0  0  0
   -4.5293   -3.3789    0.0000 C   0  0  0  0  0  0  0  0  0  0  0  0
   -1.5632   -3.6033    0.0000 C   0  0  0  0  0  0  0  0  0  0  0  0
   -0.7497   -3.4661    0.0000 C   0  0  0  0  0  0  0  0  0  0  0  0
   -0.2241   -4.1021    0.0000 C   0  0  0  0  0  0  0  0  0  0  0  0
   -0.5121   -4.8752    0.0000 C   0  0  0  0  0  0  0  0  0  0  0  0
   -1.3256   -5.0124    0.0000 C   0  0  0  0  0  0  0  0  0  0  0  0
   -1.8511   -4.3764    0.0000 C   0  0  0  0  0  0  0  0  0  0  0  0
  1  2  1  0  0  0  0
  2  3  2  0  0  0  0
  2  4  1  0  0  0  0
  5  4  1  1  0  0  0
  5  6  1  0  0  0  0
  6  7  2  0  0  0  0
  7  8  1  0  0  0  0
  7  9  1  0  0  0  0
  9 10  1  0  0  0  0
 10 11  1  0  0  0  0
 11 12  1  1  0  0  0
 11 13  1  0  0  0  0
 13 14  1  6  0  0  0
 14 15  1  0  0  0  0
 15 16  2  0  0  0  0
 15 17  1  0  0  0  0
 17 18  4  0  0  0  0
 18 19  4  0  0  0  0
 19 20  4  0  0  0  0
 20 21  4  0  0  0  0
 21 22  4  0  0  0  0
 17 22  4  0  0  0  0
 13 23  1  0  0  0  0
 23 24  1  0  0  0  0
 24 25  1  0  0  0  0
 25 26  1  0  0  0  0
 26 27  1  0  0  0  0
 24 27  1  0  0  0  0
 27 28  1  1  0  0  0
 28 29  1  0  0  0  0
 29 30  1  1  0  0  0
 29 31  1  0  0  0  0
 23 31  1  0  0  0  0
 31 32  1  1  0  0  0
 31 33  1  0  0  0  0
  5 33  1  0  0  0  0
 33 34  2  0  0  0  0
 24 35  1  6  0  0  0
 35 36  1  0  0  0  0
 36 37  2  0  0  0  0
 36 38  1  0  0  0  0
 11 39  1  0  0  0  0
  6 39  1  0  0  0  0
 39 40  1  0  0  0  0
 39 41  1  0  0  0  0
  9 42  1  6  0  0  0
 42 43  1  0  0  0  0
 43 44  2  0  0  0  0
 43 45  1  0  0  0  0
 45 46  1  1  0  0  0
 45 47  1  0  0  0  0
 47 48  1  6  0  0  0
 48 49  1  0  0  0  0
 49 50  2  0  0  0  0
 49 51  1  0  0  0  0
 51 52  4  0  0  0  0
 52 53  4  0  0  0  0
 53 54  4  0  0  0  0
 54 55  4  0  0  0  0
 55 56  4  0  0  0  0
 51 56  4  0  0  0  0
 47 57  1  0  0  0  0
 57 58  4  0  0  0  0
 58 59  4  0  0  0  0
 59 60  4  0  0  0  0
 60 61  4  0  0  0  0
 61 62  4  0  0  0  0
 57 62  4  0  0  0  0
M  END

> <ChembankId>
346

> <SMILES>
CC(=O)O[C@@H]1C2=C(C)[C@H](C[C@@](O)([C@@H](OC(=O)c3ccccc3)[C@@H]4[C@@]5(CO[C@@H]5C[C@H](O)[C@@]4(C)C1=O)OC(=O)C)C2(C)C)OC(=O)[C@H](O)[C@@H](NC(=O)c6ccccc6)c7ccccc7

> <InChI>
1/C47H51NO14/c1-25-31(60-43(56)36(52)35(28-16-10-7-11-17-28)48-41(54)29-18-12-8-13-19-29)23-47(57)40(61-42(55)30-20-14-9-15-21-30)38-45(6,32(51)22-33-46(38,24-58-33)62-27(3)50)39(53)37(59-26(2)49)34(25)44(47,4)5/h7-21,31-33,35-38,40,51-52,57H,22-24H2,1-6H3,(H,48,54)

$$$$
678
  Marvin  11101114192D          

 14 14  0  0  0  0            999 V2000
   -1.4289   -1.6500    0.0000 N   0  0  0  0  0  0  0  0  0  0  0  0
   -0.7145   -1.2375    0.0000 C   0  0  0  0  0  0  0  0  0  0  0  0
   -0.7145   -0.4125    0.0000 C   0  0  0  0  0  0  0  0  0  0  0  0
    0.0000   -0.0000    0.0000 C   0  0  0  0  0  0  0  0  0  0  0  0
    0.7145   -0.4125    0.0000 C   0  0  0  0  0  0  0  0  0  0  0  0
    1.4289   -0.0000    0.0000 O   0  0  0  0  0  0  0  0  0  0  0  0
    0.7145   -1.2375    0.0000 O   0  0  0  0  0  0  0  0  0  0  0  0
   -1.4289   -0.0000    0.0000 C   0  0  0  0  0  0  0  0  0  0  0  0
   -2.1434   -0.4125    0.0000 C   0  0  0  0  0  0  0  0  0  0  0  0
   -2.8579    0.0000    0.0000 C   0  0  0  0  0  0  0  0  0  0  0  0
   -2.8579    0.8250    0.0000 C   0  0  0  0  0  0  0  0  0  0  0  0
   -3.5724    1.2375    0.0000 Cl  0  0  0  0  0  0  0  0  0  0  0  0
   -2.1434    1.2375    0.0000 C   0  0  0  0  0  0  0  0  0  0  0  0
   -1.4289    0.8250    0.0000 C   0  0  0  0  0  0  0  0  0  0  0  0
  1  2  1  0  0  0  0
  2  3  1  0  0  0  0
  3  4  1  0  0  0  0
  4  5  1  0  0  0  0
  5  6  2  0  0  0  0
  5  7  1  0  0  0  0
  3  8  1  0  0  0  0
  8  9  4  0  0  0  0
  9 10  4  0  0  0  0
 10 11  4  0  0  0  0
 11 12  1  0  0  0  0
 11 13  4  0  0  0  0
 13 14  4  0  0  0  0
  8 14  4  0  0  0  0
M  END

> <ChembankId>
678

> <SMILES>
NCC(CC(=O)O)c1ccc(Cl)cc1

> <InChI>
1/C10H12ClNO2/c11-9-3-1-7(2-4-9)8(6-12)5-10(13)14/h1-4,8H,5-6,12H2,(H,13,14)

$$$$
681
  Marvin  11101114192D          

 20 22  0  0  0  0            999 V2000
    0.7145    2.0625    0.0000 C   0  0  0  0  0  0  0  0  0  0  0  0
    1.4289    2.4750    0.0000 C   0  0  0  0  0  0  0  0  0  0  0  0
    2.1434    2.0625    0.0000 C   0  0  0  0  0  0  0  0  0  0  0  0
    2.1434    1.2375    0.0000 N   0  0  0  0  0  0  0  0  0  0  0  0
    2.8579    0.8250    0.0000 C   0  0  0  0  0  0  0  0  0  0  0  0
    3.5724    1.2375    0.0000 C   0  0  0  0  0  0  0  0  0  0  0  0
    4.2868    0.8250    0.0000 C   0  0  0  0  0  0  0  0  0  0  0  0
    4.2868   -0.0000    0.0000 C   0  0  0  0  0  0  0  0  0  0  0  0
    3.5724   -0.4125    0.0000 C   0  0  0  0  0  0  0  0  0  0  0  0
    2.8579    0.0000    0.0000 C   0  0  0  0  0  0  0  0  0  0  0  0
    2.1434   -0.4125    0.0000 S   0  0  0  0  0  0  0  0  0  0  0  0
    1.4289    0.0000    0.0000 C   0  0  0  0  0  0  0  0  0  0  0  0
    0.7145   -0.4125    0.0000 C   0  0  0  0  0  0  0  0  0  0  0  0
    0.0000    0.0000    0.0000 C   0  0  0  0  0  0  0  0  0  0  0  0
    0.0000    0.8250    0.0000 C   0  0  0  0  0  0  0  0  0  0  0  0
    0.7145    1.2375    0.0000 C   0  0  0  0  0  0  0  0  0  0  0  0
    1.4289    0.8250    0.0000 C   0  0  0  0  0  0  0  0  0  0  0  0
    1.4289    3.3000    0.0000 N   0  0  0  0  0  0  0  0  0  0  0  0
    0.7145    3.7125    0.0000 C   0  0  0  0  0  0  0  0  0  0  0  0
    2.1434    3.7125    0.0000 C   0  0  0  0  0  0  0  0  0  0  0  0
  1  2  1  0  0  0  0
  2  3  1  0  0  0  0
  3  4  1  0  0  0  0
  4  5  1  0  0  0  0
  5  6  4  0  0  0  0
  6  7  4  0  0  0  0
  7  8  4  0  0  0  0
  8  9  4  0  0  0  0
  9 10  4  0  0  0  0
  5 10  4  0  0  0  0
 10 11  1  0  0  0  0
 11 12  1  0  0  0  0
 12 13  4  0  0  0  0
 13 14  4  0  0  0  0
 14 15  4  0  0  0  0
 15 16  4  0  0  0  0
 16 17  4  0  0  0  0
  4 17  1  0  0  0  0
 12 17  4  0  0  0  0
  2 18  1  0  0  0  0
 18 19  1  0  0  0  0
 18 20  1  0  0  0  0
M  END

> <ChembankId>
681

> <SMILES>
CC(CN1c2ccccc2Sc3ccccc13)N(C)C

> <InChI>
1/C17H20N2S/c1-13(18(2)3)12-19-14-8-4-6-10-16(14)20-17-11-7-5-9-15(17)19/h4-11,13H,12H2,1-3H3

$$$$
687
  Marvin  11101114192D          

 44 49  0  0  1  0            999 V2000
    2.0210   -2.0327    0.0000 C   0  0  0  0  0  0  0  0  0  0  0  0
    1.7489   -2.8115    0.0000 O   0  0  0  0  0  0  0  0  0  0  0  0
    2.2873   -3.4366    0.0000 C   0  0  1  0  0  0  0  0  0  0  0  0
    2.0151   -4.2154    0.0000 C   0  0  1  0  0  0  0  0  0  0  0  0
    2.5535   -4.8405    0.0000 C   0  0  0  0  0  0  0  0  0  0  0  0
    3.3641   -4.6868    0.0000 C   0  0  2  0  0  0  0  0  0  0  0  0
    3.9025   -5.3119    0.0000 C   0  0  0  0  0  0  0  0  0  0  0  0
    4.7131   -5.1582    0.0000 N   0  0  0  0  0  0  0  0  0  0  0  0
    5.2515   -5.7833    0.0000 C   0  0  0  0  0  0  0  0  0  0  0  0
    6.0620   -5.6295    0.0000 C   0  0  0  0  0  0  0  0  0  0  0  0
    6.3342   -4.8507    0.0000 C   0  0  0  0  0  0  0  0  0  0  0  0
    5.7957   -4.2256    0.0000 C   0  0  0  0  0  0  0  0  0  0  0  0
    6.2239   -3.5204    0.0000 N   0  0  0  0  0  0  0  0  0  0  0  0
    7.0269   -3.7096    0.0000 C   0  0  0  0  0  0  0  0  0  0  0  0
    7.7048   -3.2395    0.0000 C   0  0  0  0  0  0  0  0  0  0  0  0
    8.4509   -3.5916    0.0000 C   0  0  0  0  0  0  0  0  0  0  0  0
    9.1289   -3.1215    0.0000 O   0  0  0  0  0  0  0  0  0  0  0  0
    9.8750   -3.4735    0.0000 C   0  0  0  0  0  0  0  0  0  0  0  0
    8.5191   -4.4138    0.0000 C   0  0  0  0  0  0  0  0  0  0  0  0
    7.8411   -4.8839    0.0000 C   0  0  0  0  0  0  0  0  0  0  0  0
    7.0950   -4.5318    0.0000 C   0  0  0  0  0  0  0  0  0  0  0  0
    4.9852   -4.3793    0.0000 C   0  0  1  0  0  0  0  0  0  0  0  0
    4.4468   -3.7542    0.0000 C   0  0  0  0  0  0  0  0  0  0  0  0
    3.6362   -3.9080    0.0000 C   0  0  2  0  0  0  0  0  0  0  0  0
    3.0978   -3.2829    0.0000 C   0  0  2  0  0  0  0  0  0  0  0  0
    3.3700   -2.5041    0.0000 C   0  0  0  0  0  0  0  0  0  0  0  0
    4.1805   -2.3503    0.0000 O   0  0  0  0  0  0  0  0  0  0  0  0
    2.8316   -1.8790    0.0000 O   0  0  0  0  0  0  0  0  0  0  0  0
    3.1037   -1.1001    0.0000 C   0  0  0  0  0  0  0  0  0  0  0  0
    1.2046   -4.3692    0.0000 O   0  0  0  0  0  0  0  0  0  0  0  0
    0.9324   -5.1480    0.0000 C   0  0  0  0  0  0  0  0  0  0  0  0
    1.4709   -5.7731    0.0000 O   0  0  0  0  0  0  0  0  0  0  0  0
    0.1219   -5.3017    0.0000 C   0  0  0  0  0  0  0  0  0  0  0  0
   -0.1503   -6.0805    0.0000 C   0  0  0  0  0  0  0  0  0  0  0  0
   -0.9608   -6.2343    0.0000 C   0  0  0  0  0  0  0  0  0  0  0  0
   -1.2329   -7.0131    0.0000 O   0  0  0  0  0  0  0  0  0  0  0  0
   -2.0435   -7.1668    0.0000 C   0  0  0  0  0  0  0  0  0  0  0  0
   -1.4992   -5.6092    0.0000 C   0  0  0  0  0  0  0  0  0  0  0  0
   -2.3098   -5.7629    0.0000 O   0  0  0  0  0  0  0  0  0  0  0  0
   -2.5819   -6.5417    0.0000 C   0  0  0  0  0  0  0  0  0  0  0  0
   -1.2271   -4.8303    0.0000 C   0  0  0  0  0  0  0  0  0  0  0  0
   -1.7655   -4.2052    0.0000 O   0  0  0  0  0  0  0  0  0  0  0  0
   -1.4933   -3.4264    0.0000 C   0  0  0  0  0  0  0  0  0  0  0  0
   -0.4165   -4.6766    0.0000 C   0  0  0  0  0  0  0  0  0  0  0  0
  1  2  1  0  0  0  0
  3  2  1  6  0  0  0
  3  4  1  0  0  0  0
  4  5  1  0  0  0  0
  6  5  1  1  0  0  0
  6  7  1  0  0  0  0
  7  8  1  0  0  0  0
  8  9  1  0  0  0  0
  9 10  1  0  0  0  0
 10 11  1  0  0  0  0
 11 12  4  0  0  0  0
 12 13  4  0  0  0  0
 13 14  4  0  0  0  0
 14 15  4  0  0  0  0
 15 16  4  0  0  0  0
 16 17  1  0  0  0  0
 17 18  1  0  0  0  0
 16 19  4  0  0  0  0
 19 20  4  0  0  0  0
 20 21  4  0  0  0  0
 11 21  4  0  0  0  0
 14 21  4  0  0  0  0
 12 22  1  0  0  0  0
  8 22  1  0  0  0  0
 22 23  1  6  0  0  0
 24 23  1  1  0  0  0
  6 24  1  0  0  0  0
 24 25  1  0  0  0  0
  3 25  1  0  0  0  0
 25 26  1  1  0  0  0
 26 27  2  0  0  0  0
 26 28  1  0  0  0  0
 28 29  1  0  0  0  0
  4 30  1  1  0  0  0
 30 31  1  0  0  0  0
 31 32  2  0  0  0  0
 31 33  1  0  0  0  0
 33 34  4  0  0  0  0
 34 35  4  0  0  0  0
 35 36  1  0  0  0  0
 36 37  1  0  0  0  0
 35 38  4  0  0  0  0
 38 39  1  0  0  0  0
 39 40  1  0  0  0  0
 38 41  4  0  0  0  0
 41 42  1  0  0  0  0
 42 43  1  0  0  0  0
 41 44  4  0  0  0  0
 33 44  4  0  0  0  0
M  STY  1   1 DAT
M  SAL   1  1  13
M  SDT   1 MRV_IMPLICIT_H                                        
M  SDD   1     0.0000    0.0000    DR    ALL  0       0  
M  SED   1 IMPL_H1
M  END

> <ChembankId>
687

> <SMILES>
CO[C@H]1[C@@H](C[C@@H]2CN3CCc4c([nH]c5cc(OC)ccc45)[C@H]3C[C@@H]2[C@@H]1C(=O)OC)OC(=O)c6cc(OC)c(OC)c(OC)c6

> <InChI>
1/C33H40N2O9/c1-38-19-7-8-20-21-9-10-35-16-18-13-27(44-32(36)17-11-25(39-2)30(41-4)26(12-17)40-3)31(42-5)28(33(37)43-6)22(18)15-24(35)29(21)34-23(20)14-19/h7-8,11-12,14,18,22,24,27-28,31,34H,9-10,13,15-16H2,1-6H3

$$$$
689
  Marvin  11101114192D          

 29 32  0  0  1  0            999 V2000
    6.2620    0.3722    0.0000 C   0  0  0  0  0  0  0  0  0  0  0  0
    5.4415    0.2859    0.0000 C   0  0  0  0  0  0  0  0  0  0  0  0
    5.0290   -0.4285    0.0000 N   0  0  0  0  0  0  0  0  0  0  0  0
    4.2221   -0.2570    0.0000 N   0  0  0  0  0  0  0  0  0  0  0  0
    4.1358    0.5635    0.0000 C   0  0  0  0  0  0  0  0  0  0  0  0
    3.4214    0.9760    0.0000 S   0  0  0  0  0  0  0  0  0  0  0  0
    2.7069    0.5635    0.0000 C   0  0  0  0  0  0  0  0  0  0  0  0
    1.9924    0.9760    0.0000 C   0  0  0  0  0  0  0  0  0  0  0  0
    1.2780    0.5635    0.0000 C   0  0  0  0  0  0  0  0  0  0  0  0
    0.5635    0.9760    0.0000 N   0  0  0  0  0  0  0  0  0  0  0  0
    0.5635    1.8010    0.0000 C   0  0  2  0  0  0  0  0  0  0  0  0
    1.2780    2.2135    0.0000 S   0  0  0  0  0  0  0  0  0  0  0  0
    1.9924    1.8010    0.0000 C   0  0  0  0  0  0  0  0  0  0  0  0
   -0.2615    1.8010    0.0000 C   0  0  2  0  0  0  0  0  0  0  0  0
   -0.8449    2.3843    0.0000 N   0  0  0  0  0  0  0  0  0  0  0  0
   -0.6314    3.1812    0.0000 C   0  0  0  0  0  0  0  0  0  0  0  0
    0.1655    3.3948    0.0000 O   0  0  0  0  0  0  0  0  0  0  0  0
   -1.2147    3.7646    0.0000 C   0  0  0  0  0  0  0  0  0  0  0  0
   -1.0012    4.5615    0.0000 N   0  0  0  0  0  0  0  0  0  0  0  0
   -1.5204    5.2026    0.0000 C   0  0  0  0  0  0  0  0  0  0  0  0
   -1.0711    5.8945    0.0000 N   0  0  0  0  0  0  0  0  0  0  0  0
   -0.2742    5.6810    0.0000 N   0  0  0  0  0  0  0  0  0  0  0  0
   -0.2310    4.8571    0.0000 N   0  0  0  0  0  0  0  0  0  0  0  0
   -0.2615    0.9760    0.0000 C   0  0  0  0  0  0  0  0  0  0  0  0
   -0.8449    0.3926    0.0000 O   0  0  0  0  0  0  0  0  0  0  0  0
    1.2780   -0.2615    0.0000 C   0  0  0  0  0  0  0  0  0  0  0  0
    0.5635   -0.6740    0.0000 O   0  0  0  0  0  0  0  0  0  0  0  0
    1.9924   -0.6740    0.0000 O   0  0  0  0  0  0  0  0  0  0  0  0
    4.8895    0.8990    0.0000 S   0  0  0  0  0  0  0  0  0  0  0  0
  1  2  1  0  0  0  0
  2  3  4  0  0  0  0
  3  4  4  0  0  0  0
  4  5  4  0  0  0  0
  5  6  1  0  0  0  0
  6  7  1  0  0  0  0
  7  8  1  0  0  0  0
  8  9  2  0  0  0  0
  9 10  1  0  0  0  0
 11 10  1  1  0  0  0
 11 12  1  0  0  0  0
 12 13  1  0  0  0  0
  8 13  1  0  0  0  0
 11 14  1  0  0  0  0
 14 15  1  1  0  0  0
 15 16  1  0  0  0  0
 16 17  2  0  0  0  0
 16 18  1  0  0  0  0
 18 19  1  0  0  0  0
 19 20  4  0  0  0  0
 20 21  4  0  0  0  0
 21 22  4  0  0  0  0
 22 23  4  0  0  0  0
 19 23  4  0  0  0  0
 14 24  1  0  0  0  0
 10 24  1  0  0  0  0
 24 25  2  0  0  0  0
  9 26  1  0  0  0  0
 26 27  2  0  0  0  0
 26 28  1  0  0  0  0
  5 29  4  0  0  0  0
  2 29  4  0  0  0  0
M  END

> <ChembankId>
689

> <SMILES>
Cc1nnc(SCC2=C(N3[C@H](SC2)[C@H](NC(=O)Cn4cnnn4)C3=O)C(=O)O)s1

> <InChI>
1/C14H14N8O4S3/c1-6-17-18-14(29-6)28-4-7-3-27-12-9(11(24)22(12)10(7)13(25)26)16-8(23)2-21-5-15-19-20-21/h5,9,12H,2-4H2,1H3,(H,16,23)(H,25,26)

$$$$
690
  Marvin  11101114192D          

 18 18  0  0  0  0            999 V2000
   -5.0013   -0.4125    0.0000 C   0  0  0  0  0  0  0  0  0  0  0  0
   -4.2868   -0.0000    0.0000 C   0  0  0  0  0  0  0  0  0  0  0  0
   -4.2868    0.8250    0.0000 C   0  0  0  0  0  0  0  0  0  0  0  0
   -3.5724   -0.4125    0.0000 N   0  0  0  0  0  0  0  0  0  0  0  0
   -2.8579   -0.0000    0.0000 C   0  0  0  0  0  0  0  0  0  0  0  0
   -2.1434   -0.4125    0.0000 C   0  0  0  0  0  0  0  0  0  0  0  0
   -2.1434   -1.2375    0.0000 O   0  0  0  0  0  0  0  0  0  0  0  0
   -1.4289   -0.0000    0.0000 C   0  0  0  0  0  0  0  0  0  0  0  0
   -0.7145   -0.4125    0.0000 O   0  0  0  0  0  0  0  0  0  0  0  0
    0.0000   -0.0000    0.0000 C   0  0  0  0  0  0  0  0  0  0  0  0
    0.0000    0.8250    0.0000 C   0  0  0  0  0  0  0  0  0  0  0  0
    0.7145    1.2375    0.0000 C   0  0  0  0  0  0  0  0  0  0  0  0
    1.4289    0.8250    0.0000 C   0  0  0  0  0  0  0  0  0  0  0  0
    1.4289   -0.0000    0.0000 C   0  0  0  0  0  0  0  0  0  0  0  0
    0.7145   -0.4125    0.0000 C   0  0  0  0  0  0  0  0  0  0  0  0
    0.7145   -1.2375    0.0000 C   0  0  0  0  0  0  0  0  0  0  0  0
    1.4289   -1.6500    0.0000 C   0  0  0  0  0  0  0  0  0  0  0  0
    2.1434   -1.2375    0.0000 C   0  0  0  0  0  0  0  0  0  0  0  0
  1  2  1  0  0  0  0
  2  3  1  0  0  0  0
  2  4  1  0  0  0  0
  4  5  1  0  0  0  0
  5  6  1  0  0  0  0
  6  7  1  0  0  0  0
  6  8  1  0  0  0  0
  8  9  1  0  0  0  0
  9 10  1  0  0  0  0
 10 11  4  0  0  0  0
 11 12  4  0  0  0  0
 12 13  4  0  0  0  0
 13 14  4  0  0  0  0
 14 15  4  0  0  0  0
 10 15  4  0  0  0  0
 15 16  1  0  0  0  0
 16 17  1  0  0  0  0
 17 18  2  0  0  0  0
M  END

> <ChembankId>
690

> <SMILES>
CC(C)NCC(O)COc1ccccc1CC=C

> <InChI>
1/C15H23NO2/c1-4-7-13-8-5-6-9-15(13)18-11-14(17)10-16-12(2)3/h4-6,8-9,12,14,16-17H,1,7,10-11H2,2-3H3

$$$$
691
  Marvin  11101114192D          

 32 35  0  0  1  0            999 V2000
   -4.2838    2.4072    0.0000 C   0  0  0  0  0  0  0  0  0  0  0  0
   -3.8344    1.7153    0.0000 C   0  0  0  0  0  0  0  0  0  0  0  0
   -4.5695    1.3408    0.0000 C   0  0  0  0  0  0  0  0  0  0  0  0
   -3.1933    2.2345    0.0000 S   0  0  0  0  0  0  0  0  0  0  0  0
   -2.5014    1.7852    0.0000 C   0  0  2  0  0  0  0  0  0  0  0  0
   -1.7045    1.5717    0.0000 C   0  0  2  0  0  0  0  0  0  0  0  0
   -0.9900    1.9842    0.0000 N   0  0  0  0  0  0  0  0  0  0  0  0
   -0.2755    1.5717    0.0000 C   0  0  0  0  0  0  0  0  0  0  0  0
   -0.2755    0.7467    0.0000 O   0  0  0  0  0  0  0  0  0  0  0  0
    0.4389    1.9842    0.0000 C   0  0  2  0  0  0  0  0  0  0  0  0
    1.1534    1.5717    0.0000 N   0  0  0  0  0  0  0  0  0  0  0  0
    1.8679    1.9842    0.0000 C   0  0  0  0  0  0  0  0  0  0  0  0
    1.8679    2.8092    0.0000 O   0  0  0  0  0  0  0  0  0  0  0  0
    2.5823    1.5717    0.0000 N   0  0  0  0  0  0  0  0  0  0  0  0
    3.3360    1.9072    0.0000 C   0  0  0  0  0  0  0  0  0  0  0  0
    3.8880    1.2941    0.0000 C   0  0  0  0  0  0  0  0  0  0  0  0
    3.4755    0.5797    0.0000 N   0  0  0  0  0  0  0  0  0  0  0  0
    2.6686    0.7512    0.0000 C   0  0  0  0  0  0  0  0  0  0  0  0
    2.0555    0.1992    0.0000 O   0  0  0  0  0  0  0  0  0  0  0  0
    0.4389    2.8092    0.0000 C   0  0  0  0  0  0  0  0  0  0  0  0
   -0.2755    3.2217    0.0000 C   0  0  0  0  0  0  0  0  0  0  0  0
   -0.2755    4.0467    0.0000 C   0  0  0  0  0  0  0  0  0  0  0  0
    0.4389    4.4592    0.0000 C   0  0  0  0  0  0  0  0  0  0  0  0
    1.1534    4.0467    0.0000 C   0  0  0  0  0  0  0  0  0  0  0  0
    1.1534    3.2217    0.0000 C   0  0  0  0  0  0  0  0  0  0  0  0
   -1.9180    0.7748    0.0000 C   0  0  0  0  0  0  0  0  0  0  0  0
   -1.5055    0.0603    0.0000 O   0  0  0  0  0  0  0  0  0  0  0  0
   -2.7149    0.9883    0.0000 N   0  0  0  0  0  0  0  0  0  0  0  0
   -3.5388    0.9451    0.0000 C   0  0  0  0  0  0  0  0  0  0  0  0
   -3.9881    0.2532    0.0000 C   0  0  0  0  0  0  0  0  0  0  0  0
   -3.6136   -0.4819    0.0000 O   0  0  0  0  0  0  0  0  0  0  0  0
   -4.8120    0.2964    0.0000 O   0  0  0  0  0  0  0  0  0  0  0  0
  1  2  1  0  0  0  0
  2  3  1  0  0  0  0
  2  4  1  0  0  0  0
  4  5  1  0  0  0  0
  5  6  1  0  0  0  0
  6  7  1  6  0  0  0
  7  8  1  0  0  0  0
  8  9  2  0  0  0  0
  8 10  1  0  0  0  0
 10 11  1  1  0  0  0
 11 12  1  0  0  0  0
 12 13  2  0  0  0  0
 12 14  1  0  0  0  0
 14 15  1  0  0  0  0
 15 16  1  0  0  0  0
 16 17  1  0  0  0  0
 17 18  1  0  0  0  0
 14 18  1  0  0  0  0
 18 19  2  0  0  0  0
 10 20  1  0  0  0  0
 20 21  4  0  0  0  0
 21 22  4  0  0  0  0
 22 23  4  0  0  0  0
 23 24  4  0  0  0  0
 24 25  4  0  0  0  0
 20 25  4  0  0  0  0
  6 26  1  0  0  0  0
 26 27  2  0  0  0  0
 26 28  1  0  0  0  0
  5 28  1  6  0  0  0
 28 29  1  0  0  0  0
  2 29  1  0  0  0  0
 29 30  1  0  0  0  0
 30 31  2  0  0  0  0
 30 32  1  0  0  0  0
M  END

> <ChembankId>
691

> <SMILES>
CC1(C)S[C@@H]2[C@H](NC(=O)[C@H](NC(=O)N3CCNC3=O)c4ccccc4)C(=O)N2C1C(=O)O

> <InChI>
1/C20H23N5O6S/c1-20(2)13(17(28)29)25-15(27)12(16(25)32-20)22-14(26)11(10-6-4-3-5-7-10)23-19(31)24-9-8-21-18(24)30/h3-7,11-13,16H,8-9H2,1-2H3,(H,21,30)(H,22,26)(H,23,31)(H,28,29)

$$$$
692
  Marvin  11101114192D          

 13 13  0  0  0  0            999 V2000
    1.6145   -2.2438    0.0000 C   0  0  0  0  0  0  0  0  0  0  0  0
    1.1296   -1.5764    0.0000 C   0  0  0  0  0  0  0  0  0  0  0  0
    0.3091   -1.6626    0.0000 O   0  0  0  0  0  0  0  0  0  0  0  0
    1.4652   -0.8227    0.0000 N   0  0  0  0  0  0  0  0  0  0  0  0
    0.9803   -0.1553    0.0000 C   0  0  0  0  0  0  0  0  0  0  0  0
    0.1553   -0.1553    0.0000 N   0  0  0  0  0  0  0  0  0  0  0  0
   -0.0997    0.6294    0.0000 N   0  0  0  0  0  0  0  0  0  0  0  0
    0.5678    1.1143    0.0000 C   0  0  0  0  0  0  0  0  0  0  0  0
    1.2352    0.6294    0.0000 S   0  0  0  0  0  0  0  0  0  0  0  0
    0.5678    1.9393    0.0000 S   0  0  0  0  0  0  0  0  0  0  0  0
    0.5678    2.7643    0.0000 O   0  0  0  0  0  0  0  0  0  0  0  0
    1.3928    1.9393    0.0000 O   0  0  0  0  0  0  0  0  0  0  0  0
   -0.2572    1.9393    0.0000 N   0  0  0  0  0  0  0  0  0  0  0  0
  1  2  1  0  0  0  0
  2  3  2  0  0  0  0
  2  4  1  0  0  0  0
  4  5  1  0  0  0  0
  5  6  4  0  0  0  0
  6  7  4  0  0  0  0
  7  8  4  0  0  0  0
  8  9  4  0  0  0  0
  5  9  4  0  0  0  0
  8 10  1  0  0  0  0
 10 11  2  0  0  0  0
 10 12  2  0  0  0  0
 10 13  1  0  0  0  0
M  END

> <ChembankId>
692

> <SMILES>
CC(=O)Nc1nnc(s1)S(=O)(=O)N

> <InChI>
1/C4H6N4O3S2/c1-2(9)6-3-7-8-4(12-3)13(5,10)11/h1H3,(H2,5,10,11)(H,6,7,9)

$$$$
694
  Marvin  11101114192D          

 27 30  0  0  1  0            999 V2000
    1.4978    2.4498    0.0000 C   0  0  0  0  0  0  0  0  0  0  0  0
    1.7781    1.6739    0.0000 C   0  0  1  0  0  0  0  0  0  0  0  0
    2.5902    1.5287    0.0000 C   0  0  0  0  0  0  0  0  0  0  0  0
    2.8705    0.7528    0.0000 C   0  0  0  0  0  0  0  0  0  0  0  0
    3.6826    0.6076    0.0000 C   0  0  0  0  0  0  0  0  0  0  0  0
    4.3340    1.1139    0.0000 C   0  0  0  0  0  0  0  0  0  0  0  0
    5.0168    0.6509    0.0000 C   0  0  0  0  0  0  0  0  0  0  0  0
    4.7875   -0.1416    0.0000 C   0  0  2  0  0  0  0  0  0  0  0  0
    4.7280   -0.9644    0.0000 O   0  0  0  0  0  0  0  0  0  0  0  0
    5.5996   -0.2868    0.0000 C   0  0  0  0  0  0  0  0  0  0  0  0
    5.8799   -1.0627    0.0000 O   0  0  0  0  0  0  0  0  0  0  0  0
    6.1315    0.3439    0.0000 C   0  0  0  0  0  0  0  0  0  0  0  0
    3.9629   -0.1684    0.0000 C   0  0  2  0  0  0  0  0  0  0  0  0
    4.3228   -0.9107    0.0000 C   0  0  0  0  0  0  0  0  0  0  0  0
    3.4311   -0.7991    0.0000 C   0  0  0  0  0  0  0  0  0  0  0  0
    2.6190   -0.6539    0.0000 C   0  0  2  0  0  0  0  0  0  0  0  0
    2.0872   -1.2846    0.0000 O   0  0  0  0  0  0  0  0  0  0  0  0
    2.3387    0.1221    0.0000 C   0  0  1  0  0  0  0  0  0  0  0  0
    1.8069   -0.5086    0.0000 F   0  0  0  0  0  0  0  0  0  0  0  0
    1.5266    0.2673    0.0000 C   0  0  0  0  0  0  0  0  0  0  0  0
    1.2973   -0.5252    0.0000 C   0  0  0  0  0  0  0  0  0  0  0  0
    0.9948   -0.3634    0.0000 C   0  0  0  0  0  0  0  0  0  0  0  0
    0.1827   -0.2182    0.0000 C   0  0  0  0  0  0  0  0  0  0  0  0
   -0.0976    0.5577    0.0000 C   0  0  0  0  0  0  0  0  0  0  0  0
   -0.9098    0.7029    0.0000 O   0  0  0  0  0  0  0  0  0  0  0  0
    0.4342    1.1884    0.0000 C   0  0  0  0  0  0  0  0  0  0  0  0
    1.2463    1.0432    0.0000 C   0  0  0  0  0  0  0  0  0  0  0  0
  2  1  1  1  0  0  0
  2  3  1  0  0  0  0
  3  4  1  0  0  0  0
  4  5  1  0  0  0  0
  5  6  1  0  0  0  0
  6  7  1  0  0  0  0
  7  8  1  0  0  0  0
  8  9  1  1  0  0  0
  8 10  1  6  0  0  0
 10 11  2  0  0  0  0
 10 12  1  0  0  0  0
  8 13  1  0  0  0  0
  5 13  1  0  0  0  0
 13 14  1  6  0  0  0
 13 15  1  0  0  0  0
 15 16  1  0  0  0  0
 16 17  1  6  0  0  0
 16 18  1  0  0  0  0
  4 18  1  0  0  0  0
 18 19  1  1  0  0  0
 18 20  1  0  0  0  0
 20 21  1  0  0  0  0
 20 22  1  0  0  0  0
 22 23  2  0  0  0  0
 23 24  1  0  0  0  0
 24 25  2  0  0  0  0
 24 26  1  0  0  0  0
 26 27  2  0  0  0  0
  2 27  1  0  0  0  0
 20 27  1  0  0  0  0
M  END

> <ChembankId>
694

> <SMILES>
C[C@H]1CC2C3CC[C@](O)(C(=O)C)[C@@]3(C)C[C@H](O)[C@]2(F)C4(C)C=CC(=O)C=C14

> <InChI>
1/C22H29FO4/c1-12-9-17-15-6-8-21(27,13(2)24)20(15,4)11-18(26)22(17,23)19(3)7-5-14(25)10-16(12)19/h5,7,10,12,15,17-18,26-27H,6,8-9,11H2,1-4H3

$$$$
697
  Marvin  11101114192D          

 18 19  0  0  0  0            999 V2000
    4.0668    2.3479    0.0000 C   0  0  0  0  0  0  0  0  0  0  0  0
    3.3523    1.9354    0.0000 N   0  0  0  0  0  0  0  0  0  0  0  0
    3.3523    1.1104    0.0000 C   0  0  0  0  0  0  0  0  0  0  0  0
    4.0668    0.6979    0.0000 O   0  0  0  0  0  0  0  0  0  0  0  0
    2.6378    0.6979    0.0000 N   0  0  0  0  0  0  0  0  0  0  0  0
    2.6378   -0.1271    0.0000 C   0  0  0  0  0  0  0  0  0  0  0  0
    1.9233    1.1104    0.0000 C   0  0  0  0  0  0  0  0  0  0  0  0
    1.1387    0.8555    0.0000 N   0  0  0  0  0  0  0  0  0  0  0  0
    0.6538    1.5229    0.0000 C   0  0  0  0  0  0  0  0  0  0  0  0
    1.1387    2.1904    0.0000 N   0  0  0  0  0  0  0  0  0  0  0  0
    0.8838    2.9750    0.0000 C   0  0  0  0  0  0  0  0  0  0  0  0
    0.0768    3.1465    0.0000 C   0  0  0  0  0  0  0  0  0  0  0  0
   -0.4752    2.5334    0.0000 O   0  0  0  0  0  0  0  0  0  0  0  0
   -0.1781    3.9312    0.0000 C   0  0  0  0  0  0  0  0  0  0  0  0
   -0.9851    4.1027    0.0000 O   0  0  0  0  0  0  0  0  0  0  0  0
    1.9233    1.9354    0.0000 C   0  0  0  0  0  0  0  0  0  0  0  0
    2.6378    2.3479    0.0000 C   0  0  0  0  0  0  0  0  0  0  0  0
    2.6378    3.1729    0.0000 O   0  0  0  0  0  0  0  0  0  0  0  0
  1  2  1  0  0  0  0
  2  3  4  0  0  0  0
  3  4  2  0  0  0  0
  3  5  4  0  0  0  0
  5  6  1  0  0  0  0
  5  7  4  0  0  0  0
  7  8  4  0  0  0  0
  8  9  4  0  0  0  0
  9 10  4  0  0  0  0
 10 11  1  0  0  0  0
 11 12  1  0  0  0  0
 12 13  1  0  0  0  0
 12 14  1  0  0  0  0
 14 15  1  0  0  0  0
 10 16  4  0  0  0  0
  7 16  4  0  0  0  0
 16 17  4  0  0  0  0
  2 17  4  0  0  0  0
 17 18  2  0  0  0  0
M  END

> <ChembankId>
697

> <SMILES>
Cn1c(=O)n(C)c2ncn(CC(O)CO)c2c1=O

> <InChI>
1/C10H14N4O4/c1-12-8-7(9(17)13(2)10(12)18)14(5-11-8)3-6(16)4-15/h5-6,15-16H,3-4H2,1-2H3

$$$$
698
  Marvin  11101114192D          

 33 35  0  0  1  0            999 V2000
   -2.8579    0.0000    0.0000 N   0  0  0  0  0  0  0  0  0  0  0  0
   -3.5724   -0.4125    0.0000 C   0  0  0  0  0  0  0  0  0  0  0  0
   -3.5724   -1.2375    0.0000 C   0  0  1  0  0  0  0  0  0  0  0  0
   -4.2868   -1.6500    0.0000 O   0  0  0  0  0  0  0  0  0  0  0  0
   -4.2868   -2.4750    0.0000 C   0  0  2  0  0  0  0  0  0  0  0  0
   -5.0013   -2.8875    0.0000 O   0  0  0  0  0  0  0  0  0  0  0  0
   -5.7158   -2.4750    0.0000 C   0  0  2  0  0  0  0  0  0  0  0  0
   -5.7158   -1.6500    0.0000 C   0  0  1  0  0  0  0  0  0  0  0  0
   -5.0013   -1.2375    0.0000 N   0  0  0  0  0  0  0  0  0  0  0  0
   -6.4302   -1.2375    0.0000 C   0  0  0  0  0  0  0  0  0  0  0  0
   -7.1447   -1.6500    0.0000 C   0  0  1  0  0  0  0  0  0  0  0  0
   -7.8592   -1.2375    0.0000 N   0  0  0  0  0  0  0  0  0  0  0  0
   -7.1447   -2.4750    0.0000 C   0  0  2  0  0  0  0  0  0  0  0  0
   -7.8592   -2.8875    0.0000 O   0  0  0  0  0  0  0  0  0  0  0  0
   -7.8592   -3.7125    0.0000 C   0  0  1  0  0  0  0  0  0  0  0  0
   -7.1447   -4.1250    0.0000 O   0  0  0  0  0  0  0  0  0  0  0  0
   -7.1447   -4.9500    0.0000 C   0  0  2  0  0  0  0  0  0  0  0  0
   -6.4302   -5.3625    0.0000 C   0  0  0  0  0  0  0  0  0  0  0  0
   -5.7158   -4.9500    0.0000 O   0  0  0  0  0  0  0  0  0  0  0  0
   -7.8592   -5.3625    0.0000 C   0  0  1  0  0  0  0  0  0  0  0  0
   -7.8592   -6.1875    0.0000 O   0  0  0  0  0  0  0  0  0  0  0  0
   -8.5737   -4.9500    0.0000 C   0  0  2  0  0  0  0  0  0  0  0  0
   -9.2881   -5.3625    0.0000 N   0  0  0  0  0  0  0  0  0  0  0  0
   -8.5737   -4.1250    0.0000 C   0  0  1  0  0  0  0  0  0  0  0  0
   -9.2881   -3.7125    0.0000 O   0  0  0  0  0  0  0  0  0  0  0  0
   -6.4302   -2.8875    0.0000 C   0  0  1  0  0  0  0  0  0  0  0  0
   -6.4302   -3.7125    0.0000 O   0  0  0  0  0  0  0  0  0  0  0  0
   -3.5724   -2.8875    0.0000 C   0  0  2  0  0  0  0  0  0  0  0  0
   -3.5724   -3.7125    0.0000 O   0  0  0  0  0  0  0  0  0  0  0  0
   -2.8579   -2.4750    0.0000 C   0  0  1  0  0  0  0  0  0  0  0  0
   -2.1434   -2.8875    0.0000 O   0  0  0  0  0  0  0  0  0  0  0  0
   -2.8579   -1.6500    0.0000 C   0  0  2  0  0  0  0  0  0  0  0  0
   -2.1434   -1.2375    0.0000 O   0  0  0  0  0  0  0  0  0  0  0  0
  1  2  1  0  0  0  0
  3  2  1  6  0  0  0
  3  4  1  0  0  0  0
  4  5  1  0  0  0  0
  5  6  1  1  0  0  0
  7  6  1  1  0  0  0
  7  8  1  0  0  0  0
  8  9  1  6  0  0  0
  8 10  1  0  0  0  0
 10 11  1  0  0  0  0
 11 12  1  6  0  0  0
 11 13  1  0  0  0  0
 13 14  1  1  0  0  0
 15 14  1  1  0  0  0
 15 16  1  0  0  0  0
 16 17  1  0  0  0  0
 17 18  1  6  0  0  0
 18 19  1  0  0  0  0
 17 20  1  0  0  0  0
 20 21  1  1  0  0  0
 20 22  1  0  0  0  0
 22 23  1  6  0  0  0
 22 24  1  0  0  0  0
 15 24  1  0  0  0  0
 24 25  1  1  0  0  0
 13 26  1  0  0  0  0
  7 26  1  0  0  0  0
 26 27  1  6  0  0  0
  5 28  1  0  0  0  0
 28 29  1  1  0  0  0
 28 30  1  0  0  0  0
 30 31  1  6  0  0  0
 30 32  1  0  0  0  0
  3 32  1  0  0  0  0
 32 33  1  1  0  0  0
M  END

> <ChembankId>
698

> <SMILES>
NC[C@H]1O[C@H](O[C@@H]2[C@@H](N)C[C@@H](N)[C@H](O[C@H]3O[C@H](CO)[C@@H](O)[C@H](N)[C@H]3O)[C@H]2O)[C@H](O)[C@@H](O)[C@@H]1O

> <InChI>
1/C18H36N4O11/c19-2-6-10(25)12(27)13(28)18(30-6)33-16-5(21)1-4(20)15(14(16)29)32-17-11(26)8(22)9(24)7(3-23)31-17/h4-18,23-29H,1-3,19-22H2

$$$$
699
  Marvin  11101114192D          

 19 20  0  0  0  0            999 V2000
    0.0000   -4.9500    0.0000 O   0  0  0  0  0  0  0  0  0  0  0  0
    0.7145   -5.3625    0.0000 C   0  0  0  0  0  0  0  0  0  0  0  0
    0.7145   -6.1875    0.0000 O   0  0  0  0  0  0  0  0  0  0  0  0
    1.4289   -4.9500    0.0000 C   0  0  0  0  0  0  0  0  0  0  0  0
    2.1434   -5.3625    0.0000 C   0  0  0  0  0  0  0  0  0  0  0  0
    2.8579   -4.9500    0.0000 C   0  0  0  0  0  0  0  0  0  0  0  0
    2.8579   -4.1250    0.0000 O   0  0  0  0  0  0  0  0  0  0  0  0
    3.5724   -5.3625    0.0000 C   0  0  0  0  0  0  0  0  0  0  0  0
    4.2868   -4.9500    0.0000 C   0  0  0  0  0  0  0  0  0  0  0  0
    5.0013   -5.3625    0.0000 C   0  0  0  0  0  0  0  0  0  0  0  0
    5.0013   -6.1875    0.0000 C   0  0  0  0  0  0  0  0  0  0  0  0
    4.2868   -6.6000    0.0000 C   0  0  0  0  0  0  0  0  0  0  0  0
    3.5724   -6.1875    0.0000 C   0  0  0  0  0  0  0  0  0  0  0  0
    5.7158   -6.6000    0.0000 C   0  0  0  0  0  0  0  0  0  0  0  0
    6.4302   -6.1875    0.0000 C   0  0  0  0  0  0  0  0  0  0  0  0
    7.1447   -6.6000    0.0000 C   0  0  0  0  0  0  0  0  0  0  0  0
    7.1447   -7.4250    0.0000 C   0  0  0  0  0  0  0  0  0  0  0  0
    6.4302   -7.8375    0.0000 C   0  0  0  0  0  0  0  0  0  0  0  0
    5.7158   -7.4250    0.0000 C   0  0  0  0  0  0  0  0  0  0  0  0
  1  2  1  0  0  0  0
  2  3  2  0  0  0  0
  2  4  1  0  0  0  0
  4  5  1  0  0  0  0
  5  6  1  0  0  0  0
  6  7  2  0  0  0  0
  6  8  1  0  0  0  0
  8  9  4  0  0  0  0
  9 10  4  0  0  0  0
 10 11  4  0  0  0  0
 11 12  4  0  0  0  0
 12 13  4  0  0  0  0
  8 13  4  0  0  0  0
 11 14  1  0  0  0  0
 14 15  4  0  0  0  0
 15 16  4  0  0  0  0
 16 17  4  0  0  0  0
 17 18  4  0  0  0  0
 18 19  4  0  0  0  0
 14 19  4  0  0  0  0
M  END

> <ChembankId>
699

> <SMILES>
OC(=O)CCC(=O)c1ccc(cc1)c2ccccc2

> <InChI>
1/C16H14O3/c17-15(10-11-16(18)19)14-8-6-13(7-9-14)12-4-2-1-3-5-12/h1-9H,10-11H2,(H,18,19)

$$$$
700
  Marvin  11101114192D          

 20 22  0  0  1  0            999 V2000
    0.0773    0.5912    0.0000 C   0  0  0  0  0  0  0  0  0  0  0  0
    0.4999   -0.1173    0.0000 N   0  0  0  0  0  0  0  0  0  0  0  0
    1.0605   -0.5572    0.0000 C   0  0  0  0  0  0  0  0  0  0  0  0
    0.7400   -1.2658    0.0000 C   0  0  0  0  0  0  0  0  0  0  0  0
    0.1197   -1.6427    0.0000 C   0  0  0  0  0  0  0  0  0  0  0  0
    0.6396   -0.9304    0.0000 C   0  0  1  0  0  0  0  0  0  0  0  0
    1.6113   -0.9304    0.0000 C   0  0  0  0  0  0  0  0  0  0  0  0
    2.1275   -1.3591    0.0000 C   0  0  2  0  0  0  0  0  0  0  0  0
    1.9893   -0.5417    0.0000 C   0  0  0  0  0  0  0  0  0  0  0  0
    2.5393   -2.0740    0.0000 O   0  0  0  0  0  0  0  0  0  0  0  0
    2.1261   -2.7880    0.0000 C   0  0  0  0  0  0  0  0  0  0  0  0
    1.3011   -2.7872    0.0000 O   0  0  0  0  0  0  0  0  0  0  0  0
    2.5379   -3.5029    0.0000 C   0  0  0  0  0  0  0  0  0  0  0  0
    3.3629   -3.5037    0.0000 O   0  0  0  0  0  0  0  0  0  0  0  0
    2.1247   -4.2170    0.0000 C   0  0  0  0  0  0  0  0  0  0  0  0
    2.5365   -4.9319    0.0000 C   0  0  0  0  0  0  0  0  0  0  0  0
    2.1233   -5.6459    0.0000 C   0  0  0  0  0  0  0  0  0  0  0  0
    1.2983   -5.6451    0.0000 C   0  0  0  0  0  0  0  0  0  0  0  0
    0.8865   -4.9302    0.0000 C   0  0  0  0  0  0  0  0  0  0  0  0
    1.2997   -4.2162    0.0000 C   0  0  0  0  0  0  0  0  0  0  0  0
  1  2  1  0  0  0  0
  2  3  1  0  0  0  0
  3  4  1  0  0  0  0
  4  5  1  0  0  0  0
  5  6  1  0  0  0  0
  2  6  1  0  0  0  0
  6  7  1  6  0  0  0
  7  8  1  0  0  0  0
  8  9  1  0  0  0  0
  3  9  1  0  0  0  0
  8 10  1  6  0  0  0
 10 11  1  0  0  0  0
 11 12  2  0  0  0  0
 11 13  1  0  0  0  0
 13 14  1  0  0  0  0
 13 15  1  0  0  0  0
 15 16  4  0  0  0  0
 16 17  4  0  0  0  0
 17 18  4  0  0  0  0
 18 19  4  0  0  0  0
 19 20  4  0  0  0  0
 15 20  4  0  0  0  0
M  END

> <ChembankId>
700

> <SMILES>
CN1C2CC[C@H]1C[C@H](C2)OC(=O)C(O)c3ccccc3

> <InChI>
1/C16H21NO3/c1-17-12-7-8-13(17)10-14(9-12)20-16(19)15(18)11-5-3-2-4-6-11/h2-6,12-15,18H,7-10H2,1H3

$$$$
705
  Marvin  11101114192D          

 25 26  0  0  0  0            999 V2000
    3.5724   -6.1875    0.0000 C   0  0  0  0  0  0  0  0  0  0  0  0
    3.5724   -5.3625    0.0000 C   0  0  0  0  0  0  0  0  0  0  0  0
    2.8579   -4.9500    0.0000 C   0  0  0  0  0  0  0  0  0  0  0  0
    2.1434   -5.3625    0.0000 C   0  0  0  0  0  0  0  0  0  0  0  0
    2.1434   -6.1875    0.0000 C   0  0  0  0  0  0  0  0  0  0  0  0
    1.4289   -6.6000    0.0000 C   0  0  0  0  0  0  0  0  0  0  0  0
    0.7145   -6.1875    0.0000 C   0  0  0  0  0  0  0  0  0  0  0  0
    0.7145   -5.3625    0.0000 C   0  0  0  0  0  0  0  0  0  0  0  0
    1.4289   -4.9500    0.0000 C   0  0  0  0  0  0  0  0  0  0  0  0
    0.0000   -4.9500    0.0000 C   0  0  0  0  0  0  0  0  0  0  0  0
   -0.7145   -4.5375    0.0000 F   0  0  0  0  0  0  0  0  0  0  0  0
   -0.4125   -5.6645    0.0000 F   0  0  0  0  0  0  0  0  0  0  0  0
    0.4125   -4.2355    0.0000 F   0  0  0  0  0  0  0  0  0  0  0  0
    4.2868   -4.9500    0.0000 N   0  0  0  0  0  0  0  0  0  0  0  0
    5.0013   -5.3625    0.0000 C   0  0  0  0  0  0  0  0  0  0  0  0
    5.7158   -4.9500    0.0000 C   0  0  0  0  0  0  0  0  0  0  0  0
    6.4302   -5.3625    0.0000 O   0  0  0  0  0  0  0  0  0  0  0  0
    7.1447   -4.9500    0.0000 C   0  0  0  0  0  0  0  0  0  0  0  0
    7.1447   -4.1250    0.0000 O   0  0  0  0  0  0  0  0  0  0  0  0
    7.8592   -5.3625    0.0000 C   0  0  0  0  0  0  0  0  0  0  0  0
    8.5737   -4.9500    0.0000 C   0  0  0  0  0  0  0  0  0  0  0  0
    9.2881   -5.3625    0.0000 C   0  0  0  0  0  0  0  0  0  0  0  0
    9.2881   -6.1875    0.0000 C   0  0  0  0  0  0  0  0  0  0  0  0
    8.5737   -6.6000    0.0000 C   0  0  0  0  0  0  0  0  0  0  0  0
    7.8592   -6.1875    0.0000 C   0  0  0  0  0  0  0  0  0  0  0  0
  1  2  1  0  0  0  0
  2  3  1  0  0  0  0
  3  4  1  0  0  0  0
  4  5  4  0  0  0  0
  5  6  4  0  0  0  0
  6  7  4  0  0  0  0
  7  8  4  0  0  0  0
  8  9  4  0  0  0  0
  4  9  4  0  0  0  0
  8 10  1  0  0  0  0
 10 11  1  0  0  0  0
 10 12  1  0  0  0  0
 10 13  1  0  0  0  0
  2 14  1  0  0  0  0
 14 15  1  0  0  0  0
 15 16  1  0  0  0  0
 16 17  1  0  0  0  0
 17 18  1  0  0  0  0
 18 19  2  0  0  0  0
 18 20  1  0  0  0  0
 20 21  4  0  0  0  0
 21 22  4  0  0  0  0
 22 23  4  0  0  0  0
 23 24  4  0  0  0  0
 24 25  4  0  0  0  0
 20 25  4  0  0  0  0
M  END

> <ChembankId>
705

> <SMILES>
CC(Cc1cccc(c1)C(F)(F)F)NCCOC(=O)c2ccccc2

> <InChI>
1/C19H20F3NO2/c1-14(12-15-6-5-9-17(13-15)19(20,21)22)23-10-11-25-18(24)16-7-3-2-4-8-16/h2-9,13-14,23H,10-12H2,1H3

$$$$
706
  Marvin  11101114192D          

 21 23  0  0  0  0            999 V2000
    0.0000   -5.7750    0.0000 N   0  0  0  0  0  0  0  0  0  0  0  0
    0.0000   -4.9500    0.0000 C   0  0  0  0  0  0  0  0  0  0  0  0
   -0.7145   -4.5375    0.0000 C   0  0  0  0  0  0  0  0  0  0  0  0
   -0.7145   -3.7125    0.0000 C   0  0  0  0  0  0  0  0  0  0  0  0
    0.0000   -3.3000    0.0000 C   0  0  0  0  0  0  0  0  0  0  0  0
    0.7145   -3.7125    0.0000 C   0  0  0  0  0  0  0  0  0  0  0  0
    0.7145   -4.5375    0.0000 C   0  0  0  0  0  0  0  0  0  0  0  0
    0.0000   -2.4750    0.0000 S   0  0  0  0  0  0  0  0  0  0  0  0
    0.8250   -2.4750    0.0000 O   0  0  0  0  0  0  0  0  0  0  0  0
   -0.8250   -2.4750    0.0000 O   0  0  0  0  0  0  0  0  0  0  0  0
    0.0000   -1.6500    0.0000 N   0  0  0  0  0  0  0  0  0  0  0  0
    0.7145   -1.2375    0.0000 C   0  0  0  0  0  0  0  0  0  0  0  0
    0.7145   -0.4125    0.0000 C   0  0  0  0  0  0  0  0  0  0  0  0
    1.4289    0.0000    0.0000 N   0  0  0  0  0  0  0  0  0  0  0  0
    2.1434   -0.4125    0.0000 C   0  0  0  0  0  0  0  0  0  0  0  0
    2.8579    0.0000    0.0000 C   0  0  0  0  0  0  0  0  0  0  0  0
    3.5724   -0.4125    0.0000 C   0  0  0  0  0  0  0  0  0  0  0  0
    3.5724   -1.2375    0.0000 C   0  0  0  0  0  0  0  0  0  0  0  0
    2.8579   -1.6500    0.0000 C   0  0  0  0  0  0  0  0  0  0  0  0
    2.1434   -1.2375    0.0000 C   0  0  0  0  0  0  0  0  0  0  0  0
    1.4289   -1.6500    0.0000 N   0  0  0  0  0  0  0  0  0  0  0  0
  1  2  1  0  0  0  0
  2  3  4  0  0  0  0
  3  4  4  0  0  0  0
  4  5  4  0  0  0  0
  5  6  4  0  0  0  0
  6  7  4  0  0  0  0
  2  7  4  0  0  0  0
  5  8  1  0  0  0  0
  8  9  2  0  0  0  0
  8 10  2  0  0  0  0
  8 11  1  0  0  0  0
 11 12  1  0  0  0  0
 12 13  4  0  0  0  0
 13 14  4  0  0  0  0
 14 15  4  0  0  0  0
 15 16  4  0  0  0  0
 16 17  4  0  0  0  0
 17 18  4  0  0  0  0
 18 19  4  0  0  0  0
 19 20  4  0  0  0  0
 15 20  4  0  0  0  0
 20 21  4  0  0  0  0
 12 21  4  0  0  0  0
M  END

> <ChembankId>
706

> <SMILES>
Nc1ccc(cc1)S(=O)(=O)Nc2cnc3ccccc3n2

> <InChI>
1/C14H12N4O2S/c15-10-5-7-11(8-6-10)21(19,20)18-14-9-16-12-3-1-2-4-13(12)17-14/h1-9H,15H2,(H,17,18)

$$$$
709
  Marvin  11101114192D          

 34 38  0  0  0  0            999 V2000
   -5.1212    5.0178    0.0000 C   0  0  0  0  0  0  0  0  0  0  0  0
   -4.2962    5.0178    0.0000 O   0  0  0  0  0  0  0  0  0  0  0  0
   -3.8837    4.3034    0.0000 C   0  0  0  0  0  0  0  0  0  0  0  0
   -3.0587    4.3034    0.0000 C   0  0  0  0  0  0  0  0  0  0  0  0
   -2.6462    3.5889    0.0000 C   0  0  0  0  0  0  0  0  0  0  0  0
   -3.0587    2.8744    0.0000 C   0  0  0  0  0  0  0  0  0  0  0  0
   -2.6462    2.1599    0.0000 C   0  0  0  0  0  0  0  0  0  0  0  0
   -1.8212    2.1599    0.0000 C   0  0  0  0  0  0  0  0  0  0  0  0
   -1.4087    1.4455    0.0000 N   0  0  0  0  0  0  0  0  0  0  0  0
   -0.5837    1.4455    0.0000 C   0  0  0  0  0  0  0  0  0  0  0  0
   -0.1712    0.7310    0.0000 C   0  0  0  0  0  0  0  0  0  0  0  0
   -0.5837    0.0165    0.0000 C   0  0  0  0  0  0  0  0  0  0  0  0
   -1.4087    0.0165    0.0000 C   0  0  0  0  0  0  0  0  0  0  0  0
   -1.8212    0.7310    0.0000 C   0  0  0  0  0  0  0  0  0  0  0  0
   -0.1712   -0.6979    0.0000 N   0  0  0  0  0  0  0  0  0  0  0  0
    0.6538   -0.6979    0.0000 C   0  0  0  0  0  0  0  0  0  0  0  0
    1.1387   -0.0305    0.0000 N   0  0  0  0  0  0  0  0  0  0  0  0
    1.9233   -0.2854    0.0000 C   0  0  0  0  0  0  0  0  0  0  0  0
    2.6378    0.1271    0.0000 C   0  0  0  0  0  0  0  0  0  0  0  0
    3.3523   -0.2854    0.0000 C   0  0  0  0  0  0  0  0  0  0  0  0
    3.3523   -1.1104    0.0000 C   0  0  0  0  0  0  0  0  0  0  0  0
    2.6378   -1.5229    0.0000 C   0  0  0  0  0  0  0  0  0  0  0  0
    1.9233   -1.1104    0.0000 C   0  0  0  0  0  0  0  0  0  0  0  0
    1.1387   -1.3654    0.0000 N   0  0  0  0  0  0  0  0  0  0  0  0
    0.8838   -2.1500    0.0000 C   0  0  0  0  0  0  0  0  0  0  0  0
    1.4358   -2.7631    0.0000 C   0  0  0  0  0  0  0  0  0  0  0  0
    2.2428   -2.5916    0.0000 C   0  0  0  0  0  0  0  0  0  0  0  0
    2.7948   -3.2047    0.0000 C   0  0  0  0  0  0  0  0  0  0  0  0
    2.5399   -3.9893    0.0000 C   0  0  0  0  0  0  0  0  0  0  0  0
    3.0919   -4.6024    0.0000 F   0  0  0  0  0  0  0  0  0  0  0  0
    1.7329   -4.1608    0.0000 C   0  0  0  0  0  0  0  0  0  0  0  0
    1.1809   -3.5477    0.0000 C   0  0  0  0  0  0  0  0  0  0  0  0
   -3.8837    2.8744    0.0000 C   0  0  0  0  0  0  0  0  0  0  0  0
   -4.2962    3.5889    0.0000 C   0  0  0  0  0  0  0  0  0  0  0  0
  1  2  1  0  0  0  0
  2  3  1  0  0  0  0
  3  4  4  0  0  0  0
  4  5  4  0  0  0  0
  5  6  4  0  0  0  0
  6  7  1  0  0  0  0
  7  8  1  0  0  0  0
  8  9  1  0  0  0  0
  9 10  1  0  0  0  0
 10 11  1  0  0  0  0
 11 12  1  0  0  0  0
 12 13  1  0  0  0  0
 13 14  1  0  0  0  0
  9 14  1  0  0  0  0
 12 15  1  0  0  0  0
 15 16  1  0  0  0  0
 16 17  4  0  0  0  0
 17 18  4  0  0  0  0
 18 19  4  0  0  0  0
 19 20  4  0  0  0  0
 20 21  4  0  0  0  0
 21 22  4  0  0  0  0
 22 23  4  0  0  0  0
 18 23  4  0  0  0  0
 23 24  4  0  0  0  0
 16 24  4  0  0  0  0
 24 25  1  0  0  0  0
 25 26  1  0  0  0  0
 26 27  4  0  0  0  0
 27 28  4  0  0  0  0
 28 29  4  0  0  0  0
 29 30  1  0  0  0  0
 29 31  4  0  0  0  0
 31 32  4  0  0  0  0
 26 32  4  0  0  0  0
  6 33  4  0  0  0  0
 33 34  4  0  0  0  0
  3 34  4  0  0  0  0
M  END

> <ChembankId>
709

> <SMILES>
COc1ccc(CCN2CCC(CC2)Nc3nc4ccccc4n3Cc5ccc(F)cc5)cc1

> <InChI>
1/C28H31FN4O/c1-34-25-12-8-21(9-13-25)14-17-32-18-15-24(16-19-32)30-28-31-26-4-2-3-5-27(26)33(28)20-22-6-10-23(29)11-7-22/h2-13,24H,14-20H2,1H3,(H,30,31)

$$$$
712
  Marvin  11101114192D          

 28 30  0  0  1  0            999 V2000
   -6.6480    2.8061    0.0000 C   0  0  0  0  0  0  0  0  0  0  0  0
   -6.0646    3.3894    0.0000 C   0  0  0  0  0  0  0  0  0  0  0  0
   -6.2781    4.1863    0.0000 O   0  0  0  0  0  0  0  0  0  0  0  0
   -5.2677    3.1759    0.0000 O   0  0  0  0  0  0  0  0  0  0  0  0
   -4.6844    3.7593    0.0000 C   0  0  0  0  0  0  0  0  0  0  0  0
   -3.8875    3.5457    0.0000 C   0  0  0  0  0  0  0  0  0  0  0  0
   -3.3041    4.1291    0.0000 C   0  0  0  0  0  0  0  0  0  0  0  0
   -2.5072    3.9156    0.0000 N   0  0  0  0  0  0  0  0  0  0  0  0
   -2.2937    3.1187    0.0000 C   0  0  2  0  0  0  0  0  0  0  0  0
   -2.8771    2.5353    0.0000 S   0  0  0  0  0  0  0  0  0  0  0  0
   -3.6739    2.7489    0.0000 C   0  0  0  0  0  0  0  0  0  0  0  0
   -1.4968    3.3322    0.0000 C   0  0  2  0  0  0  0  0  0  0  0  0
   -0.7823    2.9197    0.0000 N   0  0  0  0  0  0  0  0  0  0  0  0
   -0.0679    3.3322    0.0000 C   0  0  0  0  0  0  0  0  0  0  0  0
   -0.0679    4.1572    0.0000 O   0  0  0  0  0  0  0  0  0  0  0  0
    0.6466    2.9197    0.0000 C   0  0  0  0  0  0  0  0  0  0  0  0
    1.3611    3.3322    0.0000 S   0  0  0  0  0  0  0  0  0  0  0  0
    2.0755    2.9197    0.0000 C   0  0  0  0  0  0  0  0  0  0  0  0
    2.7900    3.3322    0.0000 C   0  0  0  0  0  0  0  0  0  0  0  0
    3.5045    2.9197    0.0000 C   0  0  0  0  0  0  0  0  0  0  0  0
    3.5045    2.0947    0.0000 N   0  0  0  0  0  0  0  0  0  0  0  0
    2.7900    1.6822    0.0000 C   0  0  0  0  0  0  0  0  0  0  0  0
    2.0755    2.0947    0.0000 C   0  0  0  0  0  0  0  0  0  0  0  0
   -1.7103    4.1291    0.0000 C   0  0  0  0  0  0  0  0  0  0  0  0
   -1.2978    4.8436    0.0000 O   0  0  0  0  0  0  0  0  0  0  0  0
   -3.5176    4.9260    0.0000 C   0  0  0  0  0  0  0  0  0  0  0  0
   -2.9343    5.5094    0.0000 O   0  0  0  0  0  0  0  0  0  0  0  0
   -4.3145    5.1395    0.0000 O   0  0  0  0  0  0  0  0  0  0  0  0
  1  2  1  0  0  0  0
  2  3  2  0  0  0  0
  2  4  1  0  0  0  0
  4  5  1  0  0  0  0
  5  6  1  0  0  0  0
  6  7  2  0  0  0  0
  7  8  1  0  0  0  0
  9  8  1  1  0  0  0
  9 10  1  0  0  0  0
 10 11  1  0  0  0  0
  6 11  1  0  0  0  0
  9 12  1  0  0  0  0
 12 13  1  1  0  0  0
 13 14  1  0  0  0  0
 14 15  2  0  0  0  0
 14 16  1  0  0  0  0
 16 17  1  0  0  0  0
 17 18  1  0  0  0  0
 18 19  4  0  0  0  0
 19 20  4  0  0  0  0
 20 21  4  0  0  0  0
 21 22  4  0  0  0  0
 22 23  4  0  0  0  0
 18 23  4  0  0  0  0
 12 24  1  0  0  0  0
  8 24  1  0  0  0  0
 24 25  2  0  0  0  0
  7 26  1  0  0  0  0
 26 27  2  0  0  0  0
 26 28  1  0  0  0  0
M  END

> <ChembankId>
712

> <SMILES>
CC(=O)OCC1=C(N2[C@H](SC1)[C@H](NC(=O)CSc3ccncc3)C2=O)C(=O)O

> <InChI>
1/C17H17N3O6S2/c1-9(21)26-6-10-7-28-16-13(15(23)20(16)14(10)17(24)25)19-12(22)8-27-11-2-4-18-5-3-11/h2-5,13,16H,6-8H2,1H3,(H,19,22)(H,24,25)

$$$$
714
  Marvin  11101114192D          

 31 32  0  0  0  0            999 V2000
    8.5737   -4.9500    0.0000 C   0  0  0  0  0  0  0  0  0  0  0  0
    7.8592   -5.3625    0.0000 C   0  0  0  0  0  0  0  0  0  0  0  0
    7.8592   -6.1875    0.0000 N   0  0  0  0  0  0  0  0  0  0  0  0
    7.1447   -6.6000    0.0000 C   0  0  0  0  0  0  0  0  0  0  0  0
    6.4302   -6.1875    0.0000 C   0  0  0  0  0  0  0  0  0  0  0  0
    5.7158   -6.6000    0.0000 C   0  0  0  0  0  0  0  0  0  0  0  0
    5.0013   -6.1875    0.0000 C   0  0  0  0  0  0  0  0  0  0  0  0
    4.2868   -6.6000    0.0000 O   0  0  0  0  0  0  0  0  0  0  0  0
    3.5724   -6.1875    0.0000 C   0  0  0  0  0  0  0  0  0  0  0  0
    3.5724   -5.3625    0.0000 O   0  0  0  0  0  0  0  0  0  0  0  0
    2.8579   -6.6000    0.0000 C   0  0  0  0  0  0  0  0  0  0  0  0
    2.8579   -7.4250    0.0000 C   0  0  0  0  0  0  0  0  0  0  0  0
    2.1434   -7.8375    0.0000 C   0  0  0  0  0  0  0  0  0  0  0  0
    1.4289   -7.4250    0.0000 C   0  0  0  0  0  0  0  0  0  0  0  0
    0.7145   -7.8375    0.0000 O   0  0  0  0  0  0  0  0  0  0  0  0
    0.0000   -7.4250    0.0000 C   0  0  0  0  0  0  0  0  0  0  0  0
    1.4289   -6.6000    0.0000 C   0  0  0  0  0  0  0  0  0  0  0  0
    0.7145   -6.1875    0.0000 O   0  0  0  0  0  0  0  0  0  0  0  0
    0.7145   -5.3625    0.0000 C   0  0  0  0  0  0  0  0  0  0  0  0
    2.1434   -6.1875    0.0000 C   0  0  0  0  0  0  0  0  0  0  0  0
    8.5737   -6.6000    0.0000 C   0  0  0  0  0  0  0  0  0  0  0  0
    8.5737   -7.4250    0.0000 C   0  0  0  0  0  0  0  0  0  0  0  0
    9.2881   -6.1875    0.0000 C   0  0  0  0  0  0  0  0  0  0  0  0
   10.0026   -6.6000    0.0000 C   0  0  0  0  0  0  0  0  0  0  0  0
   10.7171   -6.1875    0.0000 C   0  0  0  0  0  0  0  0  0  0  0  0
   11.4315   -6.6000    0.0000 C   0  0  0  0  0  0  0  0  0  0  0  0
   11.4315   -7.4250    0.0000 C   0  0  0  0  0  0  0  0  0  0  0  0
   12.1460   -7.8375    0.0000 O   0  0  0  0  0  0  0  0  0  0  0  0
   12.8605   -7.4250    0.0000 C   0  0  0  0  0  0  0  0  0  0  0  0
   10.7171   -7.8375    0.0000 C   0  0  0  0  0  0  0  0  0  0  0  0
   10.0026   -7.4250    0.0000 C   0  0  0  0  0  0  0  0  0  0  0  0
  1  2  1  0  0  0  0
  2  3  1  0  0  0  0
  3  4  1  0  0  0  0
  4  5  1  0  0  0  0
  5  6  1  0  0  0  0
  6  7  1  0  0  0  0
  7  8  1  0  0  0  0
  8  9  1  0  0  0  0
  9 10  2  0  0  0  0
  9 11  1  0  0  0  0
 11 12  4  0  0  0  0
 12 13  4  0  0  0  0
 13 14  4  0  0  0  0
 14 15  1  0  0  0  0
 15 16  1  0  0  0  0
 14 17  4  0  0  0  0
 17 18  1  0  0  0  0
 18 19  1  0  0  0  0
 17 20  4  0  0  0  0
 11 20  4  0  0  0  0
  3 21  1  0  0  0  0
 21 22  1  0  0  0  0
 21 23  1  0  0  0  0
 23 24  1  0  0  0  0
 24 25  4  0  0  0  0
 25 26  4  0  0  0  0
 26 27  4  0  0  0  0
 27 28  1  0  0  0  0
 28 29  1  0  0  0  0
 27 30  4  0  0  0  0
 30 31  4  0  0  0  0
 24 31  4  0  0  0  0
M  END

> <ChembankId>
714

> <SMILES>
CCN(CCCCOC(=O)c1ccc(OC)c(OC)c1)C(C)Cc2ccc(OC)cc2

> <InChI>
1/C25H35NO5/c1-6-26(19(2)17-20-9-12-22(28-3)13-10-20)15-7-8-16-31-25(27)21-11-14-23(29-4)24(18-21)30-5/h9-14,18-19H,6-8,15-17H2,1-5H3

$$$$
715
  Marvin  11101114192D          

 19 21  0  0  0  0            999 V2000
    1.4289    2.4750    0.0000 C   0  0  0  0  0  0  0  0  0  0  0  0
    2.1434    2.0625    0.0000 O   0  0  0  0  0  0  0  0  0  0  0  0
    2.1434    1.2375    0.0000 C   0  0  0  0  0  0  0  0  0  0  0  0
    2.8579    0.8250    0.0000 C   0  0  0  0  0  0  0  0  0  0  0  0
    3.6425    1.0799    0.0000 C   0  0  0  0  0  0  0  0  0  0  0  0
    4.1274    0.4125    0.0000 C   0  0  0  0  0  0  0  0  0  0  0  0
    3.6425   -0.2549    0.0000 O   0  0  0  0  0  0  0  0  0  0  0  0
    2.8579    0.0000    0.0000 C   0  0  0  0  0  0  0  0  0  0  0  0
    2.1434   -0.4125    0.0000 C   0  0  0  0  0  0  0  0  0  0  0  0
    2.1434   -1.2375    0.0000 O   0  0  0  0  0  0  0  0  0  0  0  0
    2.8579   -1.6500    0.0000 C   0  0  0  0  0  0  0  0  0  0  0  0
    1.4289    0.0000    0.0000 C   0  0  0  0  0  0  0  0  0  0  0  0
    0.7145   -0.4125    0.0000 O   0  0  0  0  0  0  0  0  0  0  0  0
    0.0000    0.0000    0.0000 C   0  0  0  0  0  0  0  0  0  0  0  0
   -0.7145   -0.4125    0.0000 C   0  0  0  0  0  0  0  0  0  0  0  0
    0.0000    0.8250    0.0000 C   0  0  0  0  0  0  0  0  0  0  0  0
    0.7145    1.2375    0.0000 C   0  0  0  0  0  0  0  0  0  0  0  0
    0.7145    2.0625    0.0000 O   0  0  0  0  0  0  0  0  0  0  0  0
    1.4289    0.8250    0.0000 C   0  0  0  0  0  0  0  0  0  0  0  0
  1  2  1  0  0  0  0
  2  3  1  0  0  0  0
  3  4  4  0  0  0  0
  4  5  4  0  0  0  0
  5  6  4  0  0  0  0
  6  7  4  0  0  0  0
  7  8  4  0  0  0  0
  4  8  4  0  0  0  0
  8  9  4  0  0  0  0
  9 10  1  0  0  0  0
 10 11  1  0  0  0  0
  9 12  4  0  0  0  0
 12 13  4  0  0  0  0
 13 14  4  0  0  0  0
 14 15  1  0  0  0  0
 14 16  4  0  0  0  0
 16 17  4  0  0  0  0
 17 18  2  0  0  0  0
 17 19  4  0  0  0  0
  3 19  4  0  0  0  0
 12 19  4  0  0  0  0
M  END

> <ChembankId>
715

> <SMILES>
COc1c2ccoc2c(OC)c3oc(C)cc(=O)c13

> <InChI>
1/C14H12O5/c1-7-6-9(15)10-11(16-2)8-4-5-18-12(8)14(17-3)13(10)19-7/h4-6H,1-3H3

$$$$
716
  Marvin  11101114192D          

 21 23  0  0  0  0            999 V2000
    2.3747    3.6320    0.0000 C   0  0  0  0  0  0  0  0  0  0  0  0
    2.3747    2.8070    0.0000 N   0  0  0  0  0  0  0  0  0  0  0  0
    1.6603    2.3945    0.0000 C   0  0  0  0  0  0  0  0  0  0  0  0
    3.0892    2.3945    0.0000 C   0  0  0  0  0  0  0  0  0  0  0  0
    3.0892    1.5695    0.0000 C   0  0  0  0  0  0  0  0  0  0  0  0
    3.8037    1.1570    0.0000 C   0  0  0  0  0  0  0  0  0  0  0  0
    3.8037    0.3320    0.0000 C   0  0  0  0  0  0  0  0  0  0  0  0
    4.5470   -0.0260    0.0000 C   0  0  0  0  0  0  0  0  0  0  0  0
    5.1517    0.5352    0.0000 C   0  0  0  0  0  0  0  0  0  0  0  0
    5.9401    0.2920    0.0000 C   0  0  0  0  0  0  0  0  0  0  0  0
    6.1237   -0.5123    0.0000 C   0  0  0  0  0  0  0  0  0  0  0  0
    5.5189   -1.0735    0.0000 C   0  0  0  0  0  0  0  0  0  0  0  0
    4.7305   -0.8303    0.0000 C   0  0  0  0  0  0  0  0  0  0  0  0
    4.2162   -1.4753    0.0000 C   0  0  0  0  0  0  0  0  0  0  0  0
    3.3912   -1.4753    0.0000 C   0  0  0  0  0  0  0  0  0  0  0  0
    2.8768   -0.8303    0.0000 C   0  0  0  0  0  0  0  0  0  0  0  0
    2.0884   -1.0735    0.0000 C   0  0  0  0  0  0  0  0  0  0  0  0
    1.4837   -0.5123    0.0000 C   0  0  0  0  0  0  0  0  0  0  0  0
    1.6673    0.2920    0.0000 C   0  0  0  0  0  0  0  0  0  0  0  0
    2.4556    0.5352    0.0000 C   0  0  0  0  0  0  0  0  0  0  0  0
    3.0604   -0.0260    0.0000 C   0  0  0  0  0  0  0  0  0  0  0  0
  1  2  1  0  0  0  0
  2  3  1  0  0  0  0
  2  4  1  0  0  0  0
  4  5  1  0  0  0  0
  5  6  1  0  0  0  0
  6  7  2  0  0  0  0
  7  8  1  0  0  0  0
  8  9  4  0  0  0  0
  9 10  4  0  0  0  0
 10 11  4  0  0  0  0
 11 12  4  0  0  0  0
 12 13  4  0  0  0  0
  8 13  4  0  0  0  0
 13 14  1  0  0  0  0
 14 15  2  0  0  0  0
 15 16  1  0  0  0  0
 16 17  4  0  0  0  0
 17 18  4  0  0  0  0
 18 19  4  0  0  0  0
 19 20  4  0  0  0  0
 20 21  4  0  0  0  0
  7 21  1  0  0  0  0
 16 21  4  0  0  0  0
M  END

> <ChembankId>
716

> <SMILES>
CN(C)CCC=C1c2ccccc2C=Cc3ccccc13

> <InChI>
1/C20H21N/c1-21(2)15-7-12-20-18-10-5-3-8-16(18)13-14-17-9-4-6-11-19(17)20/h3-6,8-14H,7,15H2,1-2H3

$$$$
717
  Marvin  11101114192D          

 14 14  0  0  0  0            999 V2000
    2.8579    0.8250    0.0000 O   0  0  0  0  0  0  0  0  0  0  0  0
    2.1434    1.2375    0.0000 C   0  0  0  0  0  0  0  0  0  0  0  0
    2.1434    2.0625    0.0000 O   0  0  0  0  0  0  0  0  0  0  0  0
    1.4289    0.8250    0.0000 C   0  0  0  0  0  0  0  0  0  0  0  0
    1.4289   -0.0000    0.0000 C   0  0  0  0  0  0  0  0  0  0  0  0
    0.7145   -0.4125    0.0000 C   0  0  0  0  0  0  0  0  0  0  0  0
    0.0000    0.0000    0.0000 C   0  0  0  0  0  0  0  0  0  0  0  0
    0.0000    0.8250    0.0000 C   0  0  0  0  0  0  0  0  0  0  0  0
    0.7145    1.2375    0.0000 C   0  0  0  0  0  0  0  0  0  0  0  0
    0.7145    2.0625    0.0000 O   0  0  0  0  0  0  0  0  0  0  0  0
    0.0000    2.4750    0.0000 P   0  0  0  0  0  0  0  0  0  0  0  0
   -0.7145    2.8875    0.0000 O   0  0  0  0  0  0  0  0  0  0  0  0
    0.4125    3.1895    0.0000 O   0  0  0  0  0  0  0  0  0  0  0  0
   -0.4125    1.7605    0.0000 O   0  0  0  0  0  0  0  0  0  0  0  0
  1  2  1  0  0  0  0
  2  3  2  0  0  0  0
  2  4  1  0  0  0  0
  4  5  4  0  0  0  0
  5  6  4  0  0  0  0
  6  7  4  0  0  0  0
  7  8  4  0  0  0  0
  8  9  4  0  0  0  0
  4  9  4  0  0  0  0
  9 10  1  0  0  0  0
 10 11  1  0  0  0  0
 11 12  2  0  0  0  0
 11 13  1  0  0  0  0
 11 14  1  0  0  0  0
M  END

> <ChembankId>
717

> <SMILES>
OC(=O)c1ccccc1OP(=O)(O)O

> <InChI>
1/C7H7O6P/c8-7(9)5-3-1-2-4-6(5)13-14(10,11)12/h1-4H,(H,8,9)(H2,10,11,12)

$$$$
3173092
  Marvin  11101114192D          

 33 35  0  0  0  0            999 V2000
   -3.3091   -0.6513    0.0000 C   0  0  0  0  0  0  0  0  0  0  0  0
   -2.5947   -0.2388    0.0000 N   0  0  0  0  0  0  0  0  0  0  0  0
   -2.5947    0.5862    0.0000 C   0  0  0  0  0  0  0  0  0  0  0  0
   -1.8802   -0.6513    0.0000 C   0  0  0  0  0  0  0  0  0  0  0  0
   -1.1657   -0.2388    0.0000 C   0  0  0  0  0  0  0  0  0  0  0  0
   -0.4512   -0.6513    0.0000 O   0  0  0  0  0  0  0  0  0  0  0  0
    0.2632   -0.2388    0.0000 C   0  0  0  0  0  0  0  0  0  0  0  0
    0.9777   -0.6513    0.0000 C   0  0  0  0  0  0  0  0  0  0  0  0
    1.6922   -0.2388    0.0000 C   0  0  0  0  0  0  0  0  0  0  0  0
    2.4066   -0.6513    0.0000 C   0  0  0  0  0  0  0  0  0  0  0  0
    2.4066   -1.4763    0.0000 C   0  0  0  0  0  0  0  0  0  0  0  0
    1.6922   -1.8888    0.0000 C   0  0  0  0  0  0  0  0  0  0  0  0
    0.9777   -1.4763    0.0000 C   0  0  0  0  0  0  0  0  0  0  0  0
    0.2632    0.5862    0.0000 C   0  0  0  0  0  0  0  0  0  0  0  0
   -0.4512    0.9987    0.0000 C   0  0  0  0  0  0  0  0  0  0  0  0
   -0.4512    1.8237    0.0000 C   0  0  0  0  0  0  0  0  0  0  0  0
    0.2632    2.2362    0.0000 C   0  0  0  0  0  0  0  0  0  0  0  0
    0.9777    1.8237    0.0000 C   0  0  0  0  0  0  0  0  0  0  0  0
    0.9777    0.9987    0.0000 C   0  0  0  0  0  0  0  0  0  0  0  0
    8.7660    0.8250    0.0000 C   0  0  0  0  0  0  0  0  0  0  0  0
    8.0516    0.4125    0.0000 N   0  0  0  0  0  0  0  0  0  0  0  0
    8.0516   -0.4125    0.0000 C   0  0  0  0  0  0  0  0  0  0  0  0
    8.7660   -0.8250    0.0000 O   0  0  0  0  0  0  0  0  0  0  0  0
    7.3371   -0.8250    0.0000 N   0  0  0  0  0  0  0  0  0  0  0  0
    7.3371   -1.6500    0.0000 C   0  0  0  0  0  0  0  0  0  0  0  0
    6.6226   -0.4125    0.0000 C   0  0  0  0  0  0  0  0  0  0  0  0
    5.8380   -0.6674    0.0000 N   0  0  0  0  0  0  0  0  0  0  0  0
    5.3531   -0.0000    0.0000 C   0  0  0  0  0  0  0  0  0  0  0  0
    4.5281   -0.0000    0.0000 Cl  0  0  0  0  0  0  0  0  0  0  0  0
    5.8380    0.6674    0.0000 N   0  0  0  0  0  0  0  0  0  0  0  0
    6.6226    0.4125    0.0000 C   0  0  0  0  0  0  0  0  0  0  0  0
    7.3371    0.8250    0.0000 C   0  0  0  0  0  0  0  0  0  0  0  0
    7.3371    1.6500    0.0000 O   0  0  0  0  0  0  0  0  0  0  0  0
  1  2  1  0  0  0  0
  2  3  1  0  0  0  0
  2  4  1  0  0  0  0
  4  5  1  0  0  0  0
  5  6  1  0  0  0  0
  6  7  1  0  0  0  0
  7  8  1  0  0  0  0
  8  9  4  0  0  0  0
  9 10  4  0  0  0  0
 10 11  4  0  0  0  0
 11 12  4  0  0  0  0
 12 13  4  0  0  0  0
  8 13  4  0  0  0  0
  7 14  1  0  0  0  0
 14 15  4  0  0  0  0
 15 16  4  0  0  0  0
 16 17  4  0  0  0  0
 17 18  4  0  0  0  0
 18 19  4  0  0  0  0
 14 19  4  0  0  0  0
 20 21  1  0  0  0  0
 21 22  4  0  0  0  0
 22 23  2  0  0  0  0
 22 24  4  0  0  0  0
 24 25  1  0  0  0  0
 24 26  4  0  0  0  0
 26 27  4  0  0  0  0
 27 28  4  0  0  0  0
 28 29  1  0  0  0  0
 28 30  4  0  0  0  0
 30 31  4  0  0  0  0
 26 31  4  0  0  0  0
 31 32  4  0  0  0  0
 21 32  4  0  0  0  0
 32 33  2  0  0  0  0
M  STY  1   1 DAT
M  SAL   1  1  30
M  SDT   1 MRV_IMPLICIT_H                                        
M  SDD   1     0.0000    0.0000    DR    ALL  0       0  
M  SED   1 IMPL_H1
M  END

> <ChembankId>
3173092

> <SMILES>
CN(C)CCOC(c1ccccc1)c2ccccc2.Cn1c(=O)n(C)c2nc(Cl)[nH]c2c1=O

> <InChI>
1/C17H21NO.C7H7ClN4O2/c1-18(2)13-14-19-17(15-9-5-3-6-10-15)16-11-7-4-8-12-16;1-11-4-3(9-6(8)10-4)5(13)12(2)7(11)14/h3-12,17H,13-14H2,1-2H3;1-2H3,(H,9,10)

$$$$
719
  Marvin  11101114192D          

 12 12  0  0  0  0            999 V2000
   -0.7145   -2.8875    0.0000 C   0  0  0  0  0  0  0  0  0  0  0  0
   -0.7145   -2.0625    0.0000 N   0  0  0  0  0  0  0  0  0  0  0  0
   -1.4289   -1.6500    0.0000 C   0  0  0  0  0  0  0  0  0  0  0  0
   -2.1434   -2.0625    0.0000 C   0  0  0  0  0  0  0  0  0  0  0  0
   -2.8579   -2.4750    0.0000 C   0  0  0  0  0  0  0  0  0  0  0  0
    0.0000   -1.6500    0.0000 C   0  0  0  0  0  0  0  0  0  0  0  0
    0.7145   -2.0625    0.0000 C   0  0  0  0  0  0  0  0  0  0  0  0
    1.4289   -1.6500    0.0000 C   0  0  0  0  0  0  0  0  0  0  0  0
    2.1434   -2.0625    0.0000 C   0  0  0  0  0  0  0  0  0  0  0  0
    2.1434   -2.8875    0.0000 C   0  0  0  0  0  0  0  0  0  0  0  0
    1.4289   -3.3000    0.0000 C   0  0  0  0  0  0  0  0  0  0  0  0
    0.7145   -2.8875    0.0000 C   0  0  0  0  0  0  0  0  0  0  0  0
  1  2  1  0  0  0  0
  2  3  1  0  0  0  0
  3  4  1  0  0  0  0
  4  5  3  0  0  0  0
  2  6  1  0  0  0  0
  6  7  1  0  0  0  0
  7  8  4  0  0  0  0
  8  9  4  0  0  0  0
  9 10  4  0  0  0  0
 10 11  4  0  0  0  0
 11 12  4  0  0  0  0
  7 12  4  0  0  0  0
M  END

> <ChembankId>
719

> <SMILES>
CN(CC#C)Cc1ccccc1

> <InChI>
1/C11H13N/c1-3-9-12(2)10-11-7-5-4-6-8-11/h1,4-8H,9-10H2,2H3

$$$$
721
  Marvin  11101114192D          

 48 51  0  0  1  0            999 V2000
    6.7780   -1.7672    0.0000 C   0  0  0  0  0  0  0  0  0  0  0  0
    5.9772   -1.9654    0.0000 O   0  0  0  0  0  0  0  0  0  0  0  0
    5.4052   -1.3709    0.0000 C   0  0  1  0  0  0  0  0  0  0  0  0
    4.6043   -1.5691    0.0000 C   0  0  0  0  0  0  0  0  0  0  0  0
    4.0323   -0.9746    0.0000 C   0  0  2  0  0  0  0  0  0  0  0  0
    3.2415   -1.2156    0.0000 O   0  0  0  0  0  0  0  0  0  0  0  0
    2.6594   -0.5783    0.0000 C   0  0  1  0  0  0  0  0  0  0  0  0
    2.4306   -1.3709    0.0000 C   0  0  2  0  0  0  0  0  0  0  0  0
    2.7766   -2.1614    0.0000 C   0  0  0  0  0  0  0  0  0  0  0  0
    1.6297   -1.5691    0.0000 C   0  0  1  0  0  0  0  0  0  0  0  0
    1.4696   -2.4219    0.0000 O   0  0  0  0  0  0  0  0  0  0  0  0
    0.6001   -2.5599    0.0000 C   0  0  0  0  0  0  0  0  0  0  0  0
    0.0280   -1.9654    0.0000 O   0  0  0  0  0  0  0  0  0  0  0  0
   -0.7728   -2.1636    0.0000 C   0  0  2  0  0  0  0  0  0  0  0  0
   -1.3449   -1.5691    0.0000 C   0  0  0  0  0  0  0  0  0  0  0  0
   -1.0016   -2.9562    0.0000 C   0  0  0  0  0  0  0  0  0  0  0  0
   -0.4296   -3.5507    0.0000 C   0  0  1  0  0  0  0  0  0  0  0  0
    0.3713   -3.3525    0.0000 C   0  0  1  0  0  0  0  0  0  0  0  0
    0.9301   -4.0098    0.0000 O   0  0  0  0  0  0  0  0  0  0  0  0
   -0.6584   -4.3433    0.0000 N   0  0  0  0  0  0  0  0  0  0  0  0
   -1.4593   -4.5415    0.0000 C   0  0  0  0  0  0  0  0  0  0  0  0
   -0.0864   -4.9378    0.0000 C   0  0  0  0  0  0  0  0  0  0  0  0
    1.0577   -0.9746    0.0000 C   0  0  1  0  0  0  0  0  0  0  0  0
    0.2181   -0.9853    0.0000 C   0  0  0  0  0  0  0  0  0  0  0  0
    1.2865   -0.1820    0.0000 C   0  0  0  0  0  0  0  0  0  0  0  0
    0.7145    0.4125    0.0000 C   0  0  1  0  0  0  0  0  0  0  0  0
   -0.0000    0.0000    0.0000 C   0  0  0  0  0  0  0  0  0  0  0  0
    0.0000    0.8250    0.0000 O   0  0  0  0  0  0  0  0  0  0  0  0
    0.9433    1.2051    0.0000 C   0  0  0  0  0  0  0  0  0  0  0  0
    0.3876    1.8531    0.0000 O   0  0  0  0  0  0  0  0  0  0  0  0
    1.7441    1.4033    0.0000 C   0  0  2  0  0  0  0  0  0  0  0  0
    2.2042    0.7395    0.0000 C   0  0  0  0  0  0  0  0  0  0  0  0
    1.9729    2.1959    0.0000 C   0  0  1  0  0  0  0  0  0  0  0  0
    1.4337    2.8437    0.0000 O   0  0  0  0  0  0  0  0  0  0  0  0
    2.7738    2.3941    0.0000 C   0  0  1  0  0  0  0  0  0  0  0  0
    3.0077    3.2053    0.0000 C   0  0  0  0  0  0  0  0  0  0  0  0
    3.3458    1.7996    0.0000 C   0  0  1  0  0  0  0  0  0  0  0  0
    4.1397    2.0988    0.0000 C   0  0  0  0  0  0  0  0  0  0  0  0
    3.1170    1.0070    0.0000 O   0  0  0  0  0  0  0  0  0  0  0  0
    3.6891    0.4125    0.0000 C   0  0  0  0  0  0  0  0  0  0  0  0
    4.3888    0.9621    0.0000 O   0  0  0  0  0  0  0  0  0  0  0  0
    3.4602   -0.3801    0.0000 C   0  0  2  0  0  0  0  0  0  0  0  0
    4.1784    0.1077    0.0000 C   0  0  0  0  0  0  0  0  0  0  0  0
    4.2611   -0.1820    0.0000 O   0  0  0  0  0  0  0  0  0  0  0  0
    5.0619    0.0162    0.0000 C   0  0  1  0  0  0  0  0  0  0  0  0
    5.2907    0.8088    0.0000 C   0  0  0  0  0  0  0  0  0  0  0  0
    5.6340   -0.5783    0.0000 C   0  0  2  0  0  0  0  0  0  0  0  0
    6.4348   -0.3801    0.0000 O   0  0  0  0  0  0  0  0  0  0  0  0
  1  2  1  0  0  0  0
  3  2  1  1  0  0  0
  3  4  1  0  0  0  0
  4  5  1  0  0  0  0
  5  6  1  6  0  0  0
  7  6  1  6  0  0  0
  7  8  1  0  0  0  0
  8  9  1  6  0  0  0
  8 10  1  0  0  0  0
 10 11  1  1  0  0  0
 11 12  1  0  0  0  0
 12 13  1  0  0  0  0
 13 14  1  0  0  0  0
 14 15  1  1  0  0  0
 14 16  1  0  0  0  0
 16 17  1  0  0  0  0
 17 18  1  0  0  0  0
 12 18  1  0  0  0  0
 18 19  1  6  0  0  0
 17 20  1  1  0  0  0
 20 21  1  0  0  0  0
 20 22  1  0  0  0  0
 10 23  1  0  0  0  0
 23 24  1  1  0  0  0
 23 25  1  0  0  0  0
 26 25  1  1  0  0  0
 26 27  1  0  0  0  0
 27 28  1  0  0  0  0
 26 28  1  0  0  0  0
 26 29  1  0  0  0  0
 29 30  2  0  0  0  0
 29 31  1  0  0  0  0
 31 32  1  1  0  0  0
 31 33  1  0  0  0  0
 33 34  1  1  0  0  0
 33 35  1  0  0  0  0
 35 36  1  1  0  0  0
 35 37  1  0  0  0  0
 37 38  1  1  0  0  0
 37 39  1  0  0  0  0
 39 40  1  0  0  0  0
 40 41  2  0  0  0  0
 40 42  1  0  0  0  0
  7 42  1  0  0  0  0
 42 43  1  6  0  0  0
  5 44  1  0  0  0  0
 44 45  1  0  0  0  0
 45 46  1  1  0  0  0
 45 47  1  0  0  0  0
  3 47  1  0  0  0  0
 47 48  1  6  0  0  0
M  END

> <ChembankId>
721

> <SMILES>
CO[C@H]1C[C@H](O[C@H]2[C@H](C)[C@@H](OC3O[C@H](C)C[C@@H]([C@H]3O)N(C)C)[C@@H](C)C[C@]4(CO4)C(=O)[C@H](C)[C@@H](O)[C@@H](C)[C@@H](C)OC(=O)[C@@H]2C)O[C@@H](C)[C@@H]1O

> <InChI>
1/C35H61NO12/c1-16-14-35(15-43-35)32(40)19(4)27(37)18(3)22(7)46-33(41)21(6)31(47-26-13-25(42-11)28(38)23(8)45-26)20(5)30(16)48-34-29(39)24(36(9)10)12-17(2)44-34/h16-31,34,37-39H,12-15H2,1-11H3

$$$$
722
  Marvin  11101114192D          

 19 19  0  0  0  0            999 V2000
   -2.8579   -1.6500    0.0000 C   0  0  0  0  0  0  0  0  0  0  0  0
   -2.1434   -2.0625    0.0000 C   0  0  0  0  0  0  0  0  0  0  0  0
   -2.1434   -2.8875    0.0000 C   0  0  0  0  0  0  0  0  0  0  0  0
   -1.4289   -3.3000    0.0000 N   0  0  0  0  0  0  0  0  0  0  0  0
   -0.7145   -2.8875    0.0000 C   0  0  0  0  0  0  0  0  0  0  0  0
   -0.7145   -2.0625    0.0000 C   0  0  0  0  0  0  0  0  0  0  0  0
    0.0000   -1.6500    0.0000 C   0  0  0  0  0  0  0  0  0  0  0  0
   -1.4289   -4.1250    0.0000 S   0  0  0  0  0  0  0  0  0  0  0  0
   -2.2539   -4.1250    0.0000 O   0  0  0  0  0  0  0  0  0  0  0  0
   -0.6039   -4.1250    0.0000 O   0  0  0  0  0  0  0  0  0  0  0  0
   -1.4289   -4.9500    0.0000 C   0  0  0  0  0  0  0  0  0  0  0  0
   -0.7145   -5.3625    0.0000 C   0  0  0  0  0  0  0  0  0  0  0  0
   -0.7145   -6.1875    0.0000 C   0  0  0  0  0  0  0  0  0  0  0  0
   -1.4289   -6.6000    0.0000 C   0  0  0  0  0  0  0  0  0  0  0  0
   -2.1434   -6.1875    0.0000 C   0  0  0  0  0  0  0  0  0  0  0  0
   -2.1434   -5.3625    0.0000 C   0  0  0  0  0  0  0  0  0  0  0  0
   -1.4289   -7.4250    0.0000 C   0  0  0  0  0  0  0  0  0  0  0  0
   -0.7145   -7.8375    0.0000 O   0  0  0  0  0  0  0  0  0  0  0  0
   -2.1434   -7.8375    0.0000 O   0  0  0  0  0  0  0  0  0  0  0  0
  1  2  1  0  0  0  0
  2  3  1  0  0  0  0
  3  4  1  0  0  0  0
  4  5  1  0  0  0  0
  5  6  1  0  0  0  0
  6  7  1  0  0  0  0
  4  8  1  0  0  0  0
  8  9  2  0  0  0  0
  8 10  2  0  0  0  0
  8 11  1  0  0  0  0
 11 12  4  0  0  0  0
 12 13  4  0  0  0  0
 13 14  4  0  0  0  0
 14 15  4  0  0  0  0
 15 16  4  0  0  0  0
 11 16  4  0  0  0  0
 14 17  1  0  0  0  0
 17 18  2  0  0  0  0
 17 19  1  0  0  0  0
M  END

> <ChembankId>
722

> <SMILES>
CCCN(CCC)S(=O)(=O)c1ccc(cc1)C(=O)O

> <InChI>
1/C13H19NO4S/c1-3-9-14(10-4-2)19(17,18)12-7-5-11(6-8-12)13(15)16/h5-8H,3-4,9-10H2,1-2H3,(H,15,16)

$$$$
724
  Marvin  11101114192D          

 17 18  0  0  0  0            999 V2000
    2.1434   -2.8875    0.0000 C   0  0  0  0  0  0  0  0  0  0  0  0
    1.4289   -2.4750    0.0000 C   0  0  0  0  0  0  0  0  0  0  0  0
    1.4289   -1.6500    0.0000 N   0  0  0  0  0  0  0  0  0  0  0  0
    0.7145   -1.2375    0.0000 C   0  0  0  0  0  0  0  0  0  0  0  0
    0.7145   -0.4125    0.0000 C   0  0  0  0  0  0  0  0  0  0  0  0
    0.0000    0.0000    0.0000 C   0  0  0  0  0  0  0  0  0  0  0  0
   -0.7145   -0.4125    0.0000 O   0  0  0  0  0  0  0  0  0  0  0  0
    0.0000    0.8250    0.0000 O   0  0  0  0  0  0  0  0  0  0  0  0
    1.4289    0.0000    0.0000 C   0  0  0  0  0  0  0  0  0  0  0  0
    1.4289    0.8250    0.0000 O   0  0  0  0  0  0  0  0  0  0  0  0
    2.1434   -0.4125    0.0000 C   0  0  0  0  0  0  0  0  0  0  0  0
    2.8579    0.0000    0.0000 C   0  0  0  0  0  0  0  0  0  0  0  0
    3.5724   -0.4125    0.0000 C   0  0  0  0  0  0  0  0  0  0  0  0
    3.5724   -1.2375    0.0000 C   0  0  0  0  0  0  0  0  0  0  0  0
    4.2868   -1.6500    0.0000 C   0  0  0  0  0  0  0  0  0  0  0  0
    2.8579   -1.6500    0.0000 N   0  0  0  0  0  0  0  0  0  0  0  0
    2.1434   -1.2375    0.0000 C   0  0  0  0  0  0  0  0  0  0  0  0
  1  2  1  0  0  0  0
  2  3  1  0  0  0  0
  3  4  4  0  0  0  0
  4  5  4  0  0  0  0
  5  6  1  0  0  0  0
  6  7  2  0  0  0  0
  6  8  1  0  0  0  0
  5  9  4  0  0  0  0
  9 10  2  0  0  0  0
  9 11  4  0  0  0  0
 11 12  4  0  0  0  0
 12 13  4  0  0  0  0
 13 14  4  0  0  0  0
 14 15  1  0  0  0  0
 14 16  4  0  0  0  0
 16 17  4  0  0  0  0
  3 17  4  0  0  0  0
 11 17  4  0  0  0  0
M  END

> <ChembankId>
724

> <SMILES>
CCn1cc(C(=O)O)c(=O)c2ccc(C)nc12

> <InChI>
1/C12H12N2O3/c1-3-14-6-9(12(16)17)10(15)8-5-4-7(2)13-11(8)14/h4-6H,3H2,1-2H3,(H,16,17)

$$$$
727
  Marvin  11101114192D          

 22 24  0  0  0  0            999 V2000
    2.1434    1.2375    0.0000 C   0  0  0  0  0  0  0  0  0  0  0  0
    2.8579    0.8250    0.0000 C   0  0  0  0  0  0  0  0  0  0  0  0
    3.5724    1.2375    0.0000 N   0  0  0  0  0  0  0  0  0  0  0  0
    3.5724    2.0625    0.0000 C   0  0  0  0  0  0  0  0  0  0  0  0
    4.2868    2.4750    0.0000 C   0  0  0  0  0  0  0  0  0  0  0  0
    4.2868    0.8250    0.0000 C   0  0  0  0  0  0  0  0  0  0  0  0
    4.2868    0.0000    0.0000 C   0  0  0  0  0  0  0  0  0  0  0  0
    5.0013    1.2375    0.0000 C   0  0  0  0  0  0  0  0  0  0  0  0
    5.7158    0.8250    0.0000 N   0  0  0  0  0  0  0  0  0  0  0  0
    6.4302    1.2375    0.0000 C   0  0  0  0  0  0  0  0  0  0  0  0
    6.4302    2.0625    0.0000 C   0  0  0  0  0  0  0  0  0  0  0  0
    7.1447    2.4750    0.0000 C   0  0  0  0  0  0  0  0  0  0  0  0
    7.8592    2.0625    0.0000 C   0  0  0  0  0  0  0  0  0  0  0  0
    7.8592    1.2375    0.0000 C   0  0  0  0  0  0  0  0  0  0  0  0
    7.1447    0.8250    0.0000 C   0  0  0  0  0  0  0  0  0  0  0  0
    7.1447    0.0000    0.0000 S   0  0  0  0  0  0  0  0  0  0  0  0
    6.4302   -0.4125    0.0000 C   0  0  0  0  0  0  0  0  0  0  0  0
    6.4302   -1.2375    0.0000 C   0  0  0  0  0  0  0  0  0  0  0  0
    5.7158   -1.6500    0.0000 C   0  0  0  0  0  0  0  0  0  0  0  0
    5.0013   -1.2375    0.0000 C   0  0  0  0  0  0  0  0  0  0  0  0
    5.0013   -0.4125    0.0000 C   0  0  0  0  0  0  0  0  0  0  0  0
    5.7158    0.0000    0.0000 C   0  0  0  0  0  0  0  0  0  0  0  0
  1  2  1  0  0  0  0
  2  3  1  0  0  0  0
  3  4  1  0  0  0  0
  4  5  1  0  0  0  0
  3  6  1  0  0  0  0
  6  7  1  0  0  0  0
  6  8  1  0  0  0  0
  8  9  1  0  0  0  0
  9 10  1  0  0  0  0
 10 11  4  0  0  0  0
 11 12  4  0  0  0  0
 12 13  4  0  0  0  0
 13 14  4  0  0  0  0
 14 15  4  0  0  0  0
 10 15  4  0  0  0  0
 15 16  1  0  0  0  0
 16 17  1  0  0  0  0
 17 18  4  0  0  0  0
 18 19  4  0  0  0  0
 19 20  4  0  0  0  0
 20 21  4  0  0  0  0
 21 22  4  0  0  0  0
  9 22  1  0  0  0  0
 17 22  4  0  0  0  0
M  END

> <ChembankId>
727

> <SMILES>
CCN(CC)C(C)CN1c2ccccc2Sc3ccccc13

> <InChI>
1/C19H24N2S/c1-4-20(5-2)15(3)14-21-16-10-6-8-12-18(16)22-19-13-9-7-11-17(19)21/h6-13,15H,4-5,14H2,1-3H3

$$$$
728
  Marvin  11101114192D          

 22 24  0  0  0  0            999 V2000
    0.7145   -0.4125    0.0000 C   0  0  0  0  0  0  0  0  0  0  0  0
    0.7145   -1.2375    0.0000 C   0  0  0  0  0  0  0  0  0  0  0  0
    1.4289   -1.6500    0.0000 C   0  0  0  0  0  0  0  0  0  0  0  0
    1.4289   -2.4750    0.0000 C   0  0  0  0  0  0  0  0  0  0  0  0
    0.7145   -2.8875    0.0000 N   0  0  0  0  0  0  0  0  0  0  0  0
    0.0000   -2.4750    0.0000 N   0  0  0  0  0  0  0  0  0  0  0  0
    0.0000   -1.6500    0.0000 C   0  0  0  0  0  0  0  0  0  0  0  0
   -0.7145   -1.2375    0.0000 N   0  0  0  0  0  0  0  0  0  0  0  0
   -1.4289   -1.6500    0.0000 C   0  0  0  0  0  0  0  0  0  0  0  0
   -2.1434   -1.2375    0.0000 C   0  0  0  0  0  0  0  0  0  0  0  0
   -2.8579   -1.6500    0.0000 N   0  0  0  0  0  0  0  0  0  0  0  0
   -2.8579   -2.4750    0.0000 C   0  0  0  0  0  0  0  0  0  0  0  0
   -3.5724   -2.8875    0.0000 C   0  0  0  0  0  0  0  0  0  0  0  0
   -4.2868   -2.4750    0.0000 O   0  0  0  0  0  0  0  0  0  0  0  0
   -4.2868   -1.6500    0.0000 C   0  0  0  0  0  0  0  0  0  0  0  0
   -3.5724   -1.2375    0.0000 C   0  0  0  0  0  0  0  0  0  0  0  0
    2.1434   -2.8875    0.0000 C   0  0  0  0  0  0  0  0  0  0  0  0
    2.8579   -2.4750    0.0000 C   0  0  0  0  0  0  0  0  0  0  0  0
    3.5724   -2.8875    0.0000 C   0  0  0  0  0  0  0  0  0  0  0  0
    3.5724   -3.7125    0.0000 C   0  0  0  0  0  0  0  0  0  0  0  0
    2.8579   -4.1250    0.0000 C   0  0  0  0  0  0  0  0  0  0  0  0
    2.1434   -3.7125    0.0000 C   0  0  0  0  0  0  0  0  0  0  0  0
  1  2  1  0  0  0  0
  2  3  4  0  0  0  0
  3  4  4  0  0  0  0
  4  5  4  0  0  0  0
  5  6  4  0  0  0  0
  6  7  4  0  0  0  0
  2  7  4  0  0  0  0
  7  8  1  0  0  0  0
  8  9  1  0  0  0  0
  9 10  1  0  0  0  0
 10 11  1  0  0  0  0
 11 12  1  0  0  0  0
 12 13  1  0  0  0  0
 13 14  1  0  0  0  0
 14 15  1  0  0  0  0
 15 16  1  0  0  0  0
 11 16  1  0  0  0  0
  4 17  1  0  0  0  0
 17 18  4  0  0  0  0
 18 19  4  0  0  0  0
 19 20  4  0  0  0  0
 20 21  4  0  0  0  0
 21 22  4  0  0  0  0
 17 22  4  0  0  0  0
M  END

> <ChembankId>
728

> <SMILES>
Cc1cc(nnc1NCCN2CCOCC2)c3ccccc3

> <InChI>
1/C17H22N4O/c1-14-13-16(15-5-3-2-4-6-15)19-20-17(14)18-7-8-21-9-11-22-12-10-21/h2-6,13H,7-12H2,1H3,(H,18,20)

$$$$
734
  Marvin  11101114192D          

 20 20  0  0  0  0            999 V2000
   -3.5724    2.0625    0.0000 C   0  0  0  0  0  0  0  0  0  0  0  0
   -2.8579    1.6500    0.0000 C   0  0  0  0  0  0  0  0  0  0  0  0
   -2.1434    2.0625    0.0000 N   0  0  0  0  0  0  0  0  0  0  0  0
   -2.1434    2.8875    0.0000 C   0  0  0  0  0  0  0  0  0  0  0  0
   -1.4289    3.3000    0.0000 C   0  0  0  0  0  0  0  0  0  0  0  0
   -1.4289    1.6500    0.0000 C   0  0  0  0  0  0  0  0  0  0  0  0
   -0.7145    2.0625    0.0000 C   0  0  0  0  0  0  0  0  0  0  0  0
   -0.0000    1.6500    0.0000 N   0  0  0  0  0  0  0  0  0  0  0  0
    0.7145    2.0625    0.0000 C   0  0  0  0  0  0  0  0  0  0  0  0
    1.4289    1.6500    0.0000 O   0  0  0  0  0  0  0  0  0  0  0  0
    0.7145    2.8875    0.0000 C   0  0  0  0  0  0  0  0  0  0  0  0
   -0.0000    3.3000    0.0000 C   0  0  0  0  0  0  0  0  0  0  0  0
   -0.0000    4.1250    0.0000 C   0  0  0  0  0  0  0  0  0  0  0  0
   -0.7145    4.5375    0.0000 Cl  0  0  0  0  0  0  0  0  0  0  0  0
    0.7145    4.5375    0.0000 C   0  0  0  0  0  0  0  0  0  0  0  0
    0.7145    5.3625    0.0000 N   0  0  0  0  0  0  0  0  0  0  0  0
    1.4289    4.1250    0.0000 C   0  0  0  0  0  0  0  0  0  0  0  0
    1.4289    3.3000    0.0000 C   0  0  0  0  0  0  0  0  0  0  0  0
    2.1434    2.8875    0.0000 O   0  0  0  0  0  0  0  0  0  0  0  0
    2.1434    2.0625    0.0000 C   0  0  0  0  0  0  0  0  0  0  0  0
  1  2  1  0  0  0  0
  2  3  1  0  0  0  0
  3  4  1  0  0  0  0
  4  5  1  0  0  0  0
  3  6  1  0  0  0  0
  6  7  1  0  0  0  0
  7  8  1  0  0  0  0
  8  9  1  0  0  0  0
  9 10  2  0  0  0  0
  9 11  1  0  0  0  0
 11 12  4  0  0  0  0
 12 13  4  0  0  0  0
 13 14  1  0  0  0  0
 13 15  4  0  0  0  0
 15 16  1  0  0  0  0
 15 17  4  0  0  0  0
 17 18  4  0  0  0  0
 11 18  4  0  0  0  0
 18 19  1  0  0  0  0
 19 20  1  0  0  0  0
M  END

> <ChembankId>
734

> <SMILES>
CCN(CC)CCNC(=O)c1cc(Cl)c(N)cc1OC

> <InChI>
1/C14H22ClN3O2/c1-4-18(5-2)7-6-17-14(19)10-8-11(15)12(16)9-13(10)20-3/h8-9H,4-7,16H2,1-3H3,(H,17,19)

$$$$
735
  Marvin  11101114192D          

 10 10  0  0  0  0            999 V2000
   -0.0000    3.3000    0.0000 N   0  0  0  0  0  0  0  0  0  0  0  0
   -0.0000    2.4750    0.0000 N   0  0  0  0  0  0  0  0  0  0  0  0
    0.7145    2.0625    0.0000 C   0  0  0  0  0  0  0  0  0  0  0  0
    1.4289    2.4750    0.0000 O   0  0  0  0  0  0  0  0  0  0  0  0
    0.7145    1.2375    0.0000 C   0  0  0  0  0  0  0  0  0  0  0  0
    1.4289    0.8250    0.0000 C   0  0  0  0  0  0  0  0  0  0  0  0
    1.4289    0.0000    0.0000 C   0  0  0  0  0  0  0  0  0  0  0  0
    0.7145   -0.4125    0.0000 N   0  0  0  0  0  0  0  0  0  0  0  0
    0.0000   -0.0000    0.0000 C   0  0  0  0  0  0  0  0  0  0  0  0
   -0.0000    0.8250    0.0000 C   0  0  0  0  0  0  0  0  0  0  0  0
  1  2  1  0  0  0  0
  2  3  1  0  0  0  0
  3  4  2  0  0  0  0
  3  5  1  0  0  0  0
  5  6  4  0  0  0  0
  6  7  4  0  0  0  0
  7  8  4  0  0  0  0
  8  9  4  0  0  0  0
  9 10  4  0  0  0  0
  5 10  4  0  0  0  0
M  END

> <ChembankId>
735

> <SMILES>
NNC(=O)c1ccncc1

> <InChI>
1/C6H7N3O/c7-9-6(10)5-1-3-8-4-2-5/h1-4H,7H2,(H,9,10)

$$$$
737
  Marvin  11101114192D          

 14 16  0  0  0  0            999 V2000
   -1.4407   -0.2854    0.0000 C   0  0  0  0  0  0  0  0  0  0  0  0
   -0.6561   -0.0305    0.0000 N   0  0  0  0  0  0  0  0  0  0  0  0
   -0.1712   -0.6979    0.0000 C   0  0  0  0  0  0  0  0  0  0  0  0
   -0.6561   -1.3654    0.0000 C   0  0  0  0  0  0  0  0  0  0  0  0
   -1.4407   -1.1104    0.0000 S   0  0  0  0  0  0  0  0  0  0  0  0
    0.6538   -0.6979    0.0000 C   0  0  0  0  0  0  0  0  0  0  0  0
    1.1387   -0.0305    0.0000 N   0  0  0  0  0  0  0  0  0  0  0  0
    1.9233   -0.2854    0.0000 C   0  0  0  0  0  0  0  0  0  0  0  0
    2.6378    0.1271    0.0000 C   0  0  0  0  0  0  0  0  0  0  0  0
    3.3523   -0.2854    0.0000 C   0  0  0  0  0  0  0  0  0  0  0  0
    3.3523   -1.1104    0.0000 C   0  0  0  0  0  0  0  0  0  0  0  0
    2.6378   -1.5229    0.0000 C   0  0  0  0  0  0  0  0  0  0  0  0
    1.9233   -1.1104    0.0000 C   0  0  0  0  0  0  0  0  0  0  0  0
    1.1387   -1.3654    0.0000 N   0  0  0  0  0  0  0  0  0  0  0  0
  1  2  4  0  0  0  0
  2  3  4  0  0  0  0
  3  4  4  0  0  0  0
  4  5  4  0  0  0  0
  1  5  4  0  0  0  0
  3  6  1  0  0  0  0
  6  7  4  0  0  0  0
  7  8  4  0  0  0  0
  8  9  4  0  0  0  0
  9 10  4  0  0  0  0
 10 11  4  0  0  0  0
 11 12  4  0  0  0  0
 12 13  4  0  0  0  0
  8 13  4  0  0  0  0
 13 14  4  0  0  0  0
  6 14  4  0  0  0  0
M  STY  1   1 DAT
M  SAL   1  1  14
M  SDT   1 MRV_IMPLICIT_H                                        
M  SDD   1     0.0000    0.0000    DR    ALL  0       0  
M  SED   1 IMPL_H1
M  END

> <ChembankId>
737

> <SMILES>
c1nc(cs1)c2nc3ccccc3[nH]2

> <InChI>
1/C10H7N3S/c1-2-4-8-7(3-1)12-10(13-8)9-5-14-6-11-9/h1-6H,(H,12,13)

$$$$
741
  Marvin  11101114192D          

 13 13  0  0  0  0            999 V2000
   -0.7145   -2.8875    0.0000 C   0  0  0  0  0  0  0  0  0  0  0  0
   -1.4289   -2.4750    0.0000 C   0  0  0  0  0  0  0  0  0  0  0  0
   -2.1434   -2.8875    0.0000 C   0  0  0  0  0  0  0  0  0  0  0  0
   -2.8579   -2.4750    0.0000 C   0  0  0  0  0  0  0  0  0  0  0  0
   -2.8579   -1.6500    0.0000 C   0  0  0  0  0  0  0  0  0  0  0  0
   -2.1434   -1.2375    0.0000 C   0  0  0  0  0  0  0  0  0  0  0  0
   -1.4289   -1.6500    0.0000 C   0  0  0  0  0  0  0  0  0  0  0  0
   -0.7145   -1.2375    0.0000 O   0  0  0  0  0  0  0  0  0  0  0  0
    0.0000   -1.6500    0.0000 C   0  0  0  0  0  0  0  0  0  0  0  0
    0.7145   -1.2375    0.0000 C   0  0  0  0  0  0  0  0  0  0  0  0
    0.7145   -0.4125    0.0000 O   0  0  0  0  0  0  0  0  0  0  0  0
    1.4289   -1.6500    0.0000 C   0  0  0  0  0  0  0  0  0  0  0  0
    2.1434   -1.2375    0.0000 O   0  0  0  0  0  0  0  0  0  0  0  0
  1  2  1  0  0  0  0
  2  3  4  0  0  0  0
  3  4  4  0  0  0  0
  4  5  4  0  0  0  0
  5  6  4  0  0  0  0
  6  7  4  0  0  0  0
  2  7  4  0  0  0  0
  7  8  1  0  0  0  0
  8  9  1  0  0  0  0
  9 10  1  0  0  0  0
 10 11  1  0  0  0  0
 10 12  1  0  0  0  0
 12 13  1  0  0  0  0
M  END

> <ChembankId>
741

> <SMILES>
Cc1ccccc1OCC(O)CO

> <InChI>
1/C10H14O3/c1-8-4-2-3-5-10(8)13-7-9(12)6-11/h2-5,9,11-12H,6-7H2,1H3

$$$$
742
  Marvin  11101114192D          

 37 40  0  0  1  0            999 V2000
    7.4371    3.1469    0.0000 C   0  0  0  0  0  0  0  0  0  0  0  0
    6.8863    2.5189    0.0000 C   0  0  2  0  0  0  0  0  0  0  0  0
    7.2383    1.5775    0.0000 C   0  0  2  0  0  0  0  0  0  0  0  0
    6.4753    1.5531    0.0000 O   0  0  0  0  0  0  0  0  0  0  0  0
    6.9491    0.8049    0.0000 C   0  0  0  0  0  0  0  0  0  0  0  0
    6.1354    0.6690    0.0000 C   0  0  0  0  0  0  0  0  0  0  0  0
    5.6108    1.3058    0.0000 C   0  0  1  0  0  0  0  0  0  0  0  0
    5.1387    1.9429    0.0000 C   0  0  0  0  0  0  0  0  0  0  0  0
    5.9001    2.0785    0.0000 C   0  0  1  0  0  0  0  0  0  0  0  0
    5.3755    2.7153    0.0000 C   0  0  0  0  0  0  0  0  0  0  0  0
    4.5618    2.5794    0.0000 C   0  0  0  0  0  0  0  0  0  0  0  0
    4.2726    1.8068    0.0000 C   0  0  1  0  0  0  0  0  0  0  0  0
    3.9481    1.0306    0.0000 C   0  0  0  0  0  0  0  0  0  0  0  0
    4.4925    1.3424    0.0000 C   0  0  0  0  0  0  0  0  0  0  0  0
    4.5079    0.3973    0.0000 C   0  0  2  0  0  0  0  0  0  0  0  0
    4.8155   -0.3949    0.0000 O   0  0  0  0  0  0  0  0  0  0  0  0
    3.6942    0.2615    0.0000 C   0  0  0  0  0  0  0  0  0  0  0  0
    3.2271    0.9998    0.0000 C   0  0  1  0  0  0  0  0  0  0  0  0
    2.4470    0.8771    0.0000 C   0  0  0  0  0  0  0  0  0  0  0  0
    2.1760    0.0452    0.0000 C   0  0  0  0  0  0  0  0  0  0  0  0
    2.4907   -0.7328    0.0000 C   0  0  0  0  0  0  0  0  0  0  0  0
    3.3078   -0.8473    0.0000 C   0  0  0  0  0  0  0  0  0  0  0  0
    3.6171   -1.6121    0.0000 C   0  0  0  0  0  0  0  0  0  0  0  0
    3.1095   -2.2624    0.0000 C   0  0  0  0  0  0  0  0  0  0  0  0
    3.4189   -3.0272    0.0000 C   0  0  0  0  0  0  0  0  0  0  0  0
    2.2925   -2.1480    0.0000 C   0  0  0  0  0  0  0  0  0  0  0  0
    2.0589   -0.8184    0.0000 C   0  0  0  0  0  0  0  0  0  0  0  0
    1.2955   -1.1311    0.0000 O   0  0  0  0  0  0  0  0  0  0  0  0
    2.7114   -1.3231    0.0000 O   0  0  0  0  0  0  0  0  0  0  0  0
    2.1253    1.7297    0.0000 C   0  0  2  0  0  0  0  0  0  0  0  0
    2.8134    2.1847    0.0000 C   0  0  0  0  0  0  0  0  0  0  0  0
    3.4589    1.6709    0.0000 C   0  0  2  0  0  0  0  0  0  0  0  0
    3.1161    2.4939    0.0000 C   0  0  0  0  0  0  0  0  0  0  0  0
    1.2576    1.6071    0.0000 O   0  0  0  0  0  0  0  0  0  0  0  0
    0.5314    1.1935    0.0000 C   0  0  0  0  0  0  0  0  0  0  0  0
    0.5265    0.3685    0.0000 O   0  0  0  0  0  0  0  0  0  0  0  0
   -0.1806    1.6102    0.0000 C   0  0  0  0  0  0  0  0  0  0  0  0
  2  1  1  6  0  0  0
  2  3  1  0  0  0  0
  3  4  1  6  0  0  0
  3  5  1  0  0  0  0
  5  6  1  0  0  0  0
  6  7  1  0  0  0  0
  7  8  1  1  0  0  0
  7  9  1  0  0  0  0
  2  9  1  0  0  0  0
  9 10  1  1  0  0  0
 10 11  1  0  0  0  0
 11 12  1  0  0  0  0
 12 13  1  6  0  0  0
 12 14  1  0  0  0  0
  7 14  1  0  0  0  0
 14 15  1  0  0  0  0
 15 16  1  6  0  0  0
 15 17  1  0  0  0  0
 18 17  1  1  0  0  0
 18 19  1  0  0  0  0
 19 20  2  0  0  0  0
 20 21  1  0  0  0  0
 21 22  1  0  0  0  0
 22 23  1  0  0  0  0
 23 24  2  0  0  0  0
 24 25  1  0  0  0  0
 24 26  1  0  0  0  0
 20 27  1  0  0  0  0
 27 28  2  0  0  0  0
 27 29  1  0  0  0  0
 19 30  1  0  0  0  0
 30 31  1  0  0  0  0
 31 32  1  0  0  0  0
 18 32  1  0  0  0  0
 12 32  1  0  0  0  0
 32 33  1  1  0  0  0
 30 34  1  1  0  0  0
 34 35  1  0  0  0  0
 35 36  2  0  0  0  0
 35 37  1  0  0  0  0
M  END

> <ChembankId>
742

> <SMILES>
C[C@@H]1[C@H](O)CC[C@@]2(C)[C@H]1CC[C@@]3(C)C2[C@H](O)C[C@H]4/C(=C(/CCC=C(C)C)\C(=O)O)/[C@H](C[C@@]43C)OC(=O)C

> <InChI>
1/C31H48O6/c1-17(2)9-8-10-20(28(35)36)26-22-15-24(34)27-29(5)13-12-23(33)18(3)21(29)11-14-30(27,6)31(22,7)16-25(26)37-19(4)32/h9,18,21-25,27,33-34H,8,10-16H2,1-7H3,(H,35,36)

$$$$
743
  Marvin  11101114192D          

 16 16  0  0  0  0            999 V2000
   -2.8579   -2.4750    0.0000 C   0  0  0  0  0  0  0  0  0  0  0  0
   -2.1434   -2.0625    0.0000 C   0  0  0  0  0  0  0  0  0  0  0  0
   -1.7309   -2.7770    0.0000 C   0  0  0  0  0  0  0  0  0  0  0  0
   -2.5559   -1.3480    0.0000 C   0  0  0  0  0  0  0  0  0  0  0  0
   -1.4289   -1.6500    0.0000 N   0  0  0  0  0  0  0  0  0  0  0  0
   -0.7145   -2.0625    0.0000 C   0  0  0  0  0  0  0  0  0  0  0  0
    0.0000   -1.6500    0.0000 C   0  0  0  0  0  0  0  0  0  0  0  0
    0.0000   -0.8250    0.0000 O   0  0  0  0  0  0  0  0  0  0  0  0
    0.7145   -2.0625    0.0000 C   0  0  0  0  0  0  0  0  0  0  0  0
    1.4289   -1.6500    0.0000 C   0  0  0  0  0  0  0  0  0  0  0  0
    2.1434   -2.0625    0.0000 C   0  0  0  0  0  0  0  0  0  0  0  0
    2.8579   -1.6500    0.0000 O   0  0  0  0  0  0  0  0  0  0  0  0
    2.1434   -2.8875    0.0000 C   0  0  0  0  0  0  0  0  0  0  0  0
    1.4289   -3.3000    0.0000 C   0  0  0  0  0  0  0  0  0  0  0  0
    1.4289   -4.1250    0.0000 O   0  0  0  0  0  0  0  0  0  0  0  0
    0.7145   -2.8875    0.0000 C   0  0  0  0  0  0  0  0  0  0  0  0
  1  2  1  0  0  0  0
  2  3  1  0  0  0  0
  2  4  1  0  0  0  0
  2  5  1  0  0  0  0
  5  6  1  0  0  0  0
  6  7  1  0  0  0  0
  7  8  1  0  0  0  0
  7  9  1  0  0  0  0
  9 10  4  0  0  0  0
 10 11  4  0  0  0  0
 11 12  1  0  0  0  0
 11 13  4  0  0  0  0
 13 14  4  0  0  0  0
 14 15  1  0  0  0  0
 14 16  4  0  0  0  0
  9 16  4  0  0  0  0
M  END

> <ChembankId>
743

> <SMILES>
CC(C)(C)NCC(O)c1cc(O)cc(O)c1

> <InChI>
1/C12H19NO3/c1-12(2,3)13-7-11(16)8-4-9(14)6-10(15)5-8/h4-6,11,13-16H,7H2,1-3H3

$$$$
746
  Marvin  11101114192D          

 20 22  0  0  0  0            999 V2000
   -1.3222    0.6402    0.0000 C   0  0  0  0  0  0  0  0  0  0  0  0
   -2.0367    1.0527    0.0000 N   0  0  0  0  0  0  0  0  0  0  0  0
   -2.0367    1.8777    0.0000 C   0  0  0  0  0  0  0  0  0  0  0  0
   -1.3222    2.2902    0.0000 C   0  0  0  0  0  0  0  0  0  0  0  0
   -1.3222    3.1152    0.0000 C   0  0  0  0  0  0  0  0  0  0  0  0
   -0.6078    3.5277    0.0000 C   0  0  0  0  0  0  0  0  0  0  0  0
    0.1067    3.1152    0.0000 C   0  0  0  0  0  0  0  0  0  0  0  0
    0.1067    2.2902    0.0000 C   0  0  0  0  0  0  0  0  0  0  0  0
   -0.6078    1.8777    0.0000 C   0  0  0  0  0  0  0  0  0  0  0  0
   -2.7512    0.6402    0.0000 C   0  0  0  0  0  0  0  0  0  0  0  0
   -2.7512   -0.1848    0.0000 C   0  0  0  0  0  0  0  0  0  0  0  0
   -3.4656   -0.5973    0.0000 C   0  0  0  0  0  0  0  0  0  0  0  0
   -4.1801   -0.1848    0.0000 C   0  0  0  0  0  0  0  0  0  0  0  0
   -4.1801    0.6402    0.0000 C   0  0  0  0  0  0  0  0  0  0  0  0
   -3.4656    1.0527    0.0000 C   0  0  0  0  0  0  0  0  0  0  0  0
   -1.3222   -0.1848    0.0000 C   0  0  0  0  0  0  0  0  0  0  0  0
   -0.6548   -0.6697    0.0000 N   0  0  0  0  0  0  0  0  0  0  0  0
   -0.9097   -1.4544    0.0000 C   0  0  0  0  0  0  0  0  0  0  0  0
   -1.7347   -1.4544    0.0000 C   0  0  0  0  0  0  0  0  0  0  0  0
   -1.9897   -0.6697    0.0000 N   0  0  0  0  0  0  0  0  0  0  0  0
  1  2  1  0  0  0  0
  2  3  1  0  0  0  0
  3  4  1  0  0  0  0
  4  5  4  0  0  0  0
  5  6  4  0  0  0  0
  6  7  4  0  0  0  0
  7  8  4  0  0  0  0
  8  9  4  0  0  0  0
  4  9  4  0  0  0  0
  2 10  1  0  0  0  0
 10 11  4  0  0  0  0
 11 12  4  0  0  0  0
 12 13  4  0  0  0  0
 13 14  4  0  0  0  0
 14 15  4  0  0  0  0
 10 15  4  0  0  0  0
  1 16  1  0  0  0  0
 16 17  2  0  0  0  0
 17 18  1  0  0  0  0
 18 19  1  0  0  0  0
 19 20  1  0  0  0  0
 16 20  1  0  0  0  0
M  END

> <ChembankId>
746

> <SMILES>
C(N(Cc1ccccc1)c2ccccc2)C3=NCCN3

> <InChI>
1/C17H19N3/c1-3-7-15(8-4-1)13-20(14-17-18-11-12-19-17)16-9-5-2-6-10-16/h1-10H,11-14H2,(H,18,19)

$$$$
750
  Marvin  11101114192D          

 40 42  0  0  1  0            999 V2000
    4.4449   -0.4672    0.0000 C   0  0  0  0  0  0  0  0  0  0  0  0
    5.0580   -1.0192    0.0000 N   0  0  0  0  0  0  0  0  0  0  0  0
    4.8865   -1.8262    0.0000 C   0  0  1  0  0  0  0  0  0  0  0  0
    5.4996   -2.3782    0.0000 C   0  0  2  0  0  0  0  0  0  0  0  0
    6.2842   -2.1233    0.0000 O   0  0  0  0  0  0  0  0  0  0  0  0
    5.3281   -3.1852    0.0000 C   0  0  1  0  0  0  0  0  0  0  0  0
    5.9411   -3.7372    0.0000 O   0  0  0  0  0  0  0  0  0  0  0  0
    4.5434   -3.4401    0.0000 C   0  0  2  0  0  0  0  0  0  0  0  0
    4.3719   -4.2471    0.0000 C   0  0  0  0  0  0  0  0  0  0  0  0
    4.9850   -4.7991    0.0000 O   0  0  0  0  0  0  0  0  0  0  0  0
    3.9303   -2.8881    0.0000 O   0  0  0  0  0  0  0  0  0  0  0  0
    4.1019   -2.0811    0.0000 C   0  0  1  0  0  0  0  0  0  0  0  0
    3.4888   -1.5291    0.0000 O   0  0  0  0  0  0  0  0  0  0  0  0
    2.7041   -1.7840    0.0000 C   0  0  0  0  0  0  0  0  0  0  0  0
    2.4492   -2.5687    0.0000 C   0  0  2  0  0  0  0  0  0  0  0  0
    2.9341   -3.2361    0.0000 O   0  0  0  0  0  0  0  0  0  0  0  0
    2.5986   -3.9898    0.0000 C   0  0  1  0  0  0  0  0  0  0  0  0
    3.0835   -4.6572    0.0000 C   0  0  2  0  0  0  0  0  0  0  0  0
    3.9040   -4.5710    0.0000 O   0  0  0  0  0  0  0  0  0  0  0  0
    2.7479   -5.4109    0.0000 C   0  0  1  0  0  0  0  0  0  0  0  0
    3.2329   -6.0783    0.0000 O   0  0  0  0  0  0  0  0  0  0  0  0
    1.9275   -5.4971    0.0000 C   0  0  2  0  0  0  0  0  0  0  0  0
    1.5919   -6.2508    0.0000 N   0  0  0  0  0  0  0  0  0  0  0  0
    0.7714   -6.3370    0.0000 C   0  0  0  0  0  0  0  0  0  0  0  0
    0.4359   -7.0907    0.0000 N   0  0  0  0  0  0  0  0  0  0  0  0
    0.2865   -5.6696    0.0000 N   0  0  0  0  0  0  0  0  0  0  0  0
    1.4425   -4.8297    0.0000 C   0  0  1  0  0  0  0  0  0  0  0  0
    0.6221   -4.9159    0.0000 O   0  0  0  0  0  0  0  0  0  0  0  0
    1.7781   -4.0760    0.0000 C   0  0  2  0  0  0  0  0  0  0  0  0
    1.2932   -3.4086    0.0000 N   0  0  0  0  0  0  0  0  0  0  0  0
    0.4727   -3.4948    0.0000 C   0  0  0  0  0  0  0  0  0  0  0  0
    0.1371   -4.2485    0.0000 N   0  0  0  0  0  0  0  0  0  0  0  0
   -0.0122   -2.8274    0.0000 N   0  0  0  0  0  0  0  0  0  0  0  0
    1.6242   -2.5687    0.0000 O   0  0  0  0  0  0  0  0  0  0  0  0
    1.3693   -1.7840    0.0000 C   0  0  1  0  0  0  0  0  0  0  0  0
    0.5846   -1.5291    0.0000 C   0  0  0  0  0  0  0  0  0  0  0  0
    2.0367   -1.2991    0.0000 C   0  0  1  0  0  0  0  0  0  0  0  0
    1.6317   -0.5804    0.0000 O   0  0  0  0  0  0  0  0  0  0  0  0
    2.4417   -0.5804    0.0000 C   0  0  0  0  0  0  0  0  0  0  0  0
    3.2667   -0.5717    0.0000 O   0  0  0  0  0  0  0  0  0  0  0  0
  1  2  1  0  0  0  0
  3  2  1  1  0  0  0
  3  4  1  0  0  0  0
  4  5  1  6  0  0  0
  4  6  1  0  0  0  0
  6  7  1  1  0  0  0
  6  8  1  0  0  0  0
  8  9  1  6  0  0  0
  9 10  1  0  0  0  0
  8 11  1  0  0  0  0
 11 12  1  0  0  0  0
  3 12  1  0  0  0  0
 12 13  1  1  0  0  0
 13 14  1  0  0  0  0
 14 15  1  0  0  0  0
 15 16  1  6  0  0  0
 17 16  1  1  0  0  0
 17 18  1  0  0  0  0
 18 19  1  6  0  0  0
 18 20  1  0  0  0  0
 20 21  1  1  0  0  0
 20 22  1  0  0  0  0
 22 23  1  6  0  0  0
 23 24  1  0  0  0  0
 24 25  2  0  0  0  0
 24 26  1  0  0  0  0
 22 27  1  0  0  0  0
 27 28  1  1  0  0  0
 27 29  1  0  0  0  0
 17 29  1  0  0  0  0
 29 30  1  6  0  0  0
 30 31  1  0  0  0  0
 31 32  2  0  0  0  0
 31 33  1  0  0  0  0
 15 34  1  0  0  0  0
 34 35  1  0  0  0  0
 35 36  1  1  0  0  0
 35 37  1  0  0  0  0
 14 37  1  0  0  0  0
 37 38  1  1  0  0  0
 37 39  1  6  0  0  0
 39 40  2  0  0  0  0
M  END

> <ChembankId>
750

> <SMILES>
CN[C@H]1[C@H](O)[C@@H](O)[C@H](CO)O[C@H]1OC2[C@H](O[C@H]3[C@H](O)[C@@H](O)[C@H](NC(=N)N)[C@@H](O)[C@@H]3NC(=N)N)O[C@@H](C)[C@]2(O)C=O

> <InChI>
1/C21H39N7O12/c1-5-21(36,4-30)16(40-17-9(26-2)13(34)10(31)6(3-29)38-17)18(37-5)39-15-8(28-20(24)25)11(32)7(27-19(22)23)12(33)14(15)35/h4-18,26,29,31-36H,3H2,1-2H3,(H4,22,23,27)(H4,24,25,28)

$$$$
751
  Marvin  11101114192D          

 21 22  0  0  0  0            999 V2000
    1.4289   -0.8250    0.0000 C   0  0  0  0  0  0  0  0  0  0  0  0
    2.1434   -1.2375    0.0000 O   0  0  0  0  0  0  0  0  0  0  0  0
    2.1434   -2.0625    0.0000 C   0  0  0  0  0  0  0  0  0  0  0  0
    2.8579   -2.4750    0.0000 C   0  0  0  0  0  0  0  0  0  0  0  0
    2.8579   -3.3000    0.0000 C   0  0  0  0  0  0  0  0  0  0  0  0
    3.5724   -3.7125    0.0000 N   0  0  0  0  0  0  0  0  0  0  0  0
    3.5724   -4.5375    0.0000 S   0  0  0  0  0  0  0  0  0  0  0  0
    2.7474   -4.5375    0.0000 O   0  0  0  0  0  0  0  0  0  0  0  0
    4.3974   -4.5375    0.0000 O   0  0  0  0  0  0  0  0  0  0  0  0
    3.5724   -5.3625    0.0000 C   0  0  0  0  0  0  0  0  0  0  0  0
    4.2868   -5.7750    0.0000 C   0  0  0  0  0  0  0  0  0  0  0  0
    4.2868   -6.6000    0.0000 C   0  0  0  0  0  0  0  0  0  0  0  0
    3.5724   -7.0125    0.0000 C   0  0  0  0  0  0  0  0  0  0  0  0
    3.5724   -7.8375    0.0000 N   0  0  0  0  0  0  0  0  0  0  0  0
    2.8579   -6.6000    0.0000 C   0  0  0  0  0  0  0  0  0  0  0  0
    2.8579   -5.7750    0.0000 C   0  0  0  0  0  0  0  0  0  0  0  0
    2.1434   -3.7125    0.0000 N   0  0  0  0  0  0  0  0  0  0  0  0
    1.4289   -3.3000    0.0000 C   0  0  0  0  0  0  0  0  0  0  0  0
    0.7145   -3.7125    0.0000 O   0  0  0  0  0  0  0  0  0  0  0  0
    0.0000   -3.3000    0.0000 C   0  0  0  0  0  0  0  0  0  0  0  0
    1.4289   -2.4750    0.0000 N   0  0  0  0  0  0  0  0  0  0  0  0
  1  2  1  0  0  0  0
  2  3  1  0  0  0  0
  3  4  4  0  0  0  0
  4  5  4  0  0  0  0
  5  6  1  0  0  0  0
  6  7  1  0  0  0  0
  7  8  2  0  0  0  0
  7  9  2  0  0  0  0
  7 10  1  0  0  0  0
 10 11  4  0  0  0  0
 11 12  4  0  0  0  0
 12 13  4  0  0  0  0
 13 14  1  0  0  0  0
 13 15  4  0  0  0  0
 15 16  4  0  0  0  0
 10 16  4  0  0  0  0
  5 17  4  0  0  0  0
 17 18  4  0  0  0  0
 18 19  1  0  0  0  0
 19 20  1  0  0  0  0
 18 21  4  0  0  0  0
  3 21  4  0  0  0  0
M  END

> <ChembankId>
751

> <SMILES>
COc1cc(NS(=O)(=O)c2ccc(N)cc2)nc(OC)n1

> <InChI>
1/C12H14N4O4S/c1-19-11-7-10(14-12(15-11)20-2)16-21(17,18)9-5-3-8(13)4-6-9/h3-7H,13H2,1-2H3,(H,14,15,16)

$$$$
752
  Marvin  11101114192D          

 19 21  0  0  0  0            999 V2000
    3.5724   -2.8875    0.0000 C   0  0  0  0  0  0  0  0  0  0  0  0
    2.8579   -2.4750    0.0000 C   0  0  0  0  0  0  0  0  0  0  0  0
    2.1434   -2.8875    0.0000 C   0  0  0  0  0  0  0  0  0  0  0  0
    1.4289   -2.4750    0.0000 C   0  0  0  0  0  0  0  0  0  0  0  0
    1.4289   -1.6500    0.0000 C   0  0  0  0  0  0  0  0  0  0  0  0
    0.7145   -1.2375    0.0000 C   0  0  0  0  0  0  0  0  0  0  0  0
    0.7145   -0.4125    0.0000 C   0  0  0  0  0  0  0  0  0  0  0  0
    0.0000    0.0000    0.0000 F   0  0  0  0  0  0  0  0  0  0  0  0
    1.4289   -0.0000    0.0000 C   0  0  0  0  0  0  0  0  0  0  0  0
    2.1434   -0.4125    0.0000 C   0  0  0  0  0  0  0  0  0  0  0  0
    2.8579    0.0000    0.0000 C   0  0  0  0  0  0  0  0  0  0  0  0
    2.8579    0.8250    0.0000 O   0  0  0  0  0  0  0  0  0  0  0  0
    3.5724   -0.4125    0.0000 C   0  0  0  0  0  0  0  0  0  0  0  0
    3.5724   -1.2375    0.0000 C   0  0  0  0  0  0  0  0  0  0  0  0
    2.8579   -1.6500    0.0000 N   0  0  0  0  0  0  0  0  0  0  0  0
    2.1434   -1.2375    0.0000 C   0  0  0  0  0  0  0  0  0  0  0  0
    4.2868   -0.0000    0.0000 C   0  0  0  0  0  0  0  0  0  0  0  0
    5.0013   -0.4125    0.0000 O   0  0  0  0  0  0  0  0  0  0  0  0
    4.2868    0.8250    0.0000 O   0  0  0  0  0  0  0  0  0  0  0  0
  1  2  1  0  0  0  0
  2  3  1  0  0  0  0
  3  4  1  0  0  0  0
  4  5  1  0  0  0  0
  5  6  4  0  0  0  0
  6  7  4  0  0  0  0
  7  8  1  0  0  0  0
  7  9  4  0  0  0  0
  9 10  4  0  0  0  0
 10 11  4  0  0  0  0
 11 12  2  0  0  0  0
 11 13  4  0  0  0  0
 13 14  4  0  0  0  0
 14 15  4  0  0  0  0
  2 15  1  0  0  0  0
 15 16  4  0  0  0  0
  5 16  4  0  0  0  0
 10 16  4  0  0  0  0
 13 17  1  0  0  0  0
 17 18  2  0  0  0  0
 17 19  1  0  0  0  0
M  END

> <ChembankId>
752

> <SMILES>
CC1CCc2cc(F)cc3c(=O)c(cn1c23)C(=O)O

> <InChI>
1/C14H12FNO3/c1-7-2-3-8-4-9(15)5-10-12(8)16(7)6-11(13(10)17)14(18)19/h4-7H,2-3H2,1H3,(H,18,19)

$$$$
753
  Marvin  11101114192D          

 29 32  0  0  0  0            999 V2000
    0.7145   -0.4125    0.0000 O   0  0  0  0  0  0  0  0  0  0  0  0
    0.7145   -1.2375    0.0000 C   0  0  0  0  0  0  0  0  0  0  0  0
    1.3819   -1.7224    0.0000 C   0  0  0  0  0  0  0  0  0  0  0  0
    2.1665   -1.4675    0.0000 C   0  0  0  0  0  0  0  0  0  0  0  0
    2.7796   -2.0195    0.0000 C   0  0  0  0  0  0  0  0  0  0  0  0
    3.5642   -1.7646    0.0000 S   0  0  0  0  0  0  0  0  0  0  0  0
    3.7358   -0.9576    0.0000 O   0  0  0  0  0  0  0  0  0  0  0  0
    4.1773   -2.3166    0.0000 C   0  0  0  0  0  0  0  0  0  0  0  0
    4.9620   -2.0617    0.0000 C   0  0  0  0  0  0  0  0  0  0  0  0
    5.5751   -2.6137    0.0000 C   0  0  0  0  0  0  0  0  0  0  0  0
    5.4035   -3.4207    0.0000 C   0  0  0  0  0  0  0  0  0  0  0  0
    4.6189   -3.6756    0.0000 C   0  0  0  0  0  0  0  0  0  0  0  0
    4.0058   -3.1236    0.0000 C   0  0  0  0  0  0  0  0  0  0  0  0
    1.1270   -2.5070    0.0000 C   0  0  0  0  0  0  0  0  0  0  0  0
    1.6119   -3.1745    0.0000 O   0  0  0  0  0  0  0  0  0  0  0  0
    0.3020   -2.5070    0.0000 N   0  0  0  0  0  0  0  0  0  0  0  0
    0.0470   -1.7224    0.0000 N   0  0  0  0  0  0  0  0  0  0  0  0
   -0.7376   -1.4675    0.0000 C   0  0  0  0  0  0  0  0  0  0  0  0
   -1.3507   -2.0195    0.0000 C   0  0  0  0  0  0  0  0  0  0  0  0
   -2.1353   -1.7646    0.0000 C   0  0  0  0  0  0  0  0  0  0  0  0
   -2.3068   -0.9576    0.0000 C   0  0  0  0  0  0  0  0  0  0  0  0
   -1.6937   -0.4056    0.0000 C   0  0  0  0  0  0  0  0  0  0  0  0
   -0.9091   -0.6605    0.0000 C   0  0  0  0  0  0  0  0  0  0  0  0
   -0.1830   -3.1745    0.0000 C   0  0  0  0  0  0  0  0  0  0  0  0
    0.1526   -3.9282    0.0000 C   0  0  0  0  0  0  0  0  0  0  0  0
   -0.3323   -4.5956    0.0000 C   0  0  0  0  0  0  0  0  0  0  0  0
   -1.1528   -4.5094    0.0000 C   0  0  0  0  0  0  0  0  0  0  0  0
   -1.4884   -3.7557    0.0000 C   0  0  0  0  0  0  0  0  0  0  0  0
   -1.0034   -3.0882    0.0000 C   0  0  0  0  0  0  0  0  0  0  0  0
  1  2  2  0  0  0  0
  2  3  1  0  0  0  0
  3  4  1  0  0  0  0
  4  5  1  0  0  0  0
  5  6  1  0  0  0  0
  6  7  2  0  0  0  0
  6  8  1  0  0  0  0
  8  9  4  0  0  0  0
  9 10  4  0  0  0  0
 10 11  4  0  0  0  0
 11 12  4  0  0  0  0
 12 13  4  0  0  0  0
  8 13  4  0  0  0  0
  3 14  1  0  0  0  0
 14 15  2  0  0  0  0
 14 16  1  0  0  0  0
 16 17  1  0  0  0  0
  2 17  1  0  0  0  0
 17 18  1  0  0  0  0
 18 19  4  0  0  0  0
 19 20  4  0  0  0  0
 20 21  4  0  0  0  0
 21 22  4  0  0  0  0
 22 23  4  0  0  0  0
 18 23  4  0  0  0  0
 16 24  1  0  0  0  0
 24 25  4  0  0  0  0
 25 26  4  0  0  0  0
 26 27  4  0  0  0  0
 27 28  4  0  0  0  0
 28 29  4  0  0  0  0
 24 29  4  0  0  0  0
M  END

> <ChembankId>
753

> <SMILES>
O=C1C(CCS(=O)c2ccccc2)C(=O)N(N1c3ccccc3)c4ccccc4

> <InChI>
1/C23H20N2O3S/c26-22-21(16-17-29(28)20-14-8-3-9-15-20)23(27)25(19-12-6-2-7-13-19)24(22)18-10-4-1-5-11-18/h1-15,21H,16-17H2

$$$$
755
  Marvin  11101114192D          

 22 24  0  0  0  0            999 V2000
    1.5971   -3.9217    0.0000 C   0  0  0  0  0  0  0  0  0  0  0  0
    1.5971   -3.0967    0.0000 C   0  0  0  0  0  0  0  0  0  0  0  0
    0.8826   -2.6842    0.0000 C   0  0  0  0  0  0  0  0  0  0  0  0
    0.1681   -3.0967    0.0000 N   0  0  0  0  0  0  0  0  0  0  0  0
   -0.5463   -2.6842    0.0000 C   0  0  0  0  0  0  0  0  0  0  0  0
    0.1681   -3.9217    0.0000 C   0  0  0  0  0  0  0  0  0  0  0  0
    2.3116   -2.6842    0.0000 C   0  0  0  0  0  0  0  0  0  0  0  0
    3.0260   -3.0967    0.0000 N   0  0  0  0  0  0  0  0  0  0  0  0
    3.7077   -2.6319    0.0000 C   0  0  0  0  0  0  0  0  0  0  0  0
    3.5241   -1.8276    0.0000 C   0  0  0  0  0  0  0  0  0  0  0  0
    4.1289   -1.2665    0.0000 C   0  0  0  0  0  0  0  0  0  0  0  0
    4.9172   -1.5096    0.0000 C   0  0  0  0  0  0  0  0  0  0  0  0
    5.1008   -2.3139    0.0000 C   0  0  0  0  0  0  0  0  0  0  0  0
    4.4960   -2.8751    0.0000 C   0  0  0  0  0  0  0  0  0  0  0  0
    4.7974   -3.6431    0.0000 C   0  0  0  0  0  0  0  0  0  0  0  0
    4.3849   -4.3575    0.0000 C   0  0  0  0  0  0  0  0  0  0  0  0
    3.5691   -4.4805    0.0000 C   0  0  0  0  0  0  0  0  0  0  0  0
    3.3856   -5.2848    0.0000 C   0  0  0  0  0  0  0  0  0  0  0  0
    2.5972   -5.5280    0.0000 C   0  0  0  0  0  0  0  0  0  0  0  0
    1.9925   -4.9668    0.0000 C   0  0  0  0  0  0  0  0  0  0  0  0
    2.1760   -4.1625    0.0000 C   0  0  0  0  0  0  0  0  0  0  0  0
    2.9644   -3.9193    0.0000 C   0  0  0  0  0  0  0  0  0  0  0  0
  1  2  1  0  0  0  0
  2  3  1  0  0  0  0
  3  4  1  0  0  0  0
  4  5  1  0  0  0  0
  4  6  1  0  0  0  0
  2  7  1  0  0  0  0
  7  8  1  0  0  0  0
  8  9  1  0  0  0  0
  9 10  4  0  0  0  0
 10 11  4  0  0  0  0
 11 12  4  0  0  0  0
 12 13  4  0  0  0  0
 13 14  4  0  0  0  0
  9 14  4  0  0  0  0
 14 15  1  0  0  0  0
 15 16  1  0  0  0  0
 16 17  1  0  0  0  0
 17 18  4  0  0  0  0
 18 19  4  0  0  0  0
 19 20  4  0  0  0  0
 20 21  4  0  0  0  0
 21 22  4  0  0  0  0
  8 22  1  0  0  0  0
 17 22  4  0  0  0  0
M  END

> <ChembankId>
755

> <SMILES>
CC(CN(C)C)CN1c2ccccc2CCc3ccccc13

> <InChI>
1/C20H26N2/c1-16(14-21(2)3)15-22-19-10-6-4-8-17(19)12-13-18-9-5-7-11-20(18)22/h4-11,16H,12-15H2,1-3H3

$$$$
759
  Marvin  11101114192D          

 26 28  0  0  1  0            999 V2000
    4.8503    0.9760    0.0000 C   0  0  0  0  0  0  0  0  0  0  0  0
    4.1358    0.5635    0.0000 C   0  0  0  0  0  0  0  0  0  0  0  0
    4.1358   -0.2615    0.0000 O   0  0  0  0  0  0  0  0  0  0  0  0
    3.4214    0.9760    0.0000 O   0  0  0  0  0  0  0  0  0  0  0  0
    2.7069    0.5635    0.0000 C   0  0  0  0  0  0  0  0  0  0  0  0
    1.9924    0.9760    0.0000 C   0  0  0  0  0  0  0  0  0  0  0  0
    1.2780    0.5635    0.0000 C   0  0  0  0  0  0  0  0  0  0  0  0
    0.5635    0.9760    0.0000 N   0  0  0  0  0  0  0  0  0  0  0  0
    0.5635    1.8010    0.0000 C   0  0  2  0  0  0  0  0  0  0  0  0
    1.2780    2.2135    0.0000 S   0  0  0  0  0  0  0  0  0  0  0  0
    1.9924    1.8010    0.0000 C   0  0  0  0  0  0  0  0  0  0  0  0
   -0.2615    1.8010    0.0000 C   0  0  2  0  0  0  0  0  0  0  0  0
   -0.8449    2.3843    0.0000 N   0  0  0  0  0  0  0  0  0  0  0  0
   -0.6314    3.1812    0.0000 C   0  0  0  0  0  0  0  0  0  0  0  0
    0.1655    3.3948    0.0000 O   0  0  0  0  0  0  0  0  0  0  0  0
   -1.2147    3.7646    0.0000 C   0  0  0  0  0  0  0  0  0  0  0  0
   -1.0012    4.5615    0.0000 C   0  0  0  0  0  0  0  0  0  0  0  0
   -1.5204    5.2026    0.0000 C   0  0  0  0  0  0  0  0  0  0  0  0
   -1.0711    5.8945    0.0000 C   0  0  0  0  0  0  0  0  0  0  0  0
   -0.2742    5.6810    0.0000 C   0  0  0  0  0  0  0  0  0  0  0  0
   -0.2310    4.8571    0.0000 S   0  0  0  0  0  0  0  0  0  0  0  0
   -0.2615    0.9760    0.0000 C   0  0  0  0  0  0  0  0  0  0  0  0
   -0.8449    0.3926    0.0000 O   0  0  0  0  0  0  0  0  0  0  0  0
    1.2780   -0.2615    0.0000 C   0  0  0  0  0  0  0  0  0  0  0  0
    0.5635   -0.6740    0.0000 O   0  0  0  0  0  0  0  0  0  0  0  0
    1.9924   -0.6740    0.0000 O   0  0  0  0  0  0  0  0  0  0  0  0
  1  2  1  0  0  0  0
  2  3  2  0  0  0  0
  2  4  1  0  0  0  0
  4  5  1  0  0  0  0
  5  6  1  0  0  0  0
  6  7  2  0  0  0  0
  7  8  1  0  0  0  0
  9  8  1  1  0  0  0
  9 10  1  0  0  0  0
 10 11  1  0  0  0  0
  6 11  1  0  0  0  0
  9 12  1  0  0  0  0
 12 13  1  1  0  0  0
 13 14  1  0  0  0  0
 14 15  2  0  0  0  0
 14 16  1  0  0  0  0
 16 17  1  0  0  0  0
 17 18  4  0  0  0  0
 18 19  4  0  0  0  0
 19 20  4  0  0  0  0
 20 21  4  0  0  0  0
 17 21  4  0  0  0  0
 12 22  1  0  0  0  0
  8 22  1  0  0  0  0
 22 23  2  0  0  0  0
  7 24  1  0  0  0  0
 24 25  2  0  0  0  0
 24 26  1  0  0  0  0
M  END

> <ChembankId>
759

> <SMILES>
CC(=O)OCC1=C(N2[C@H](SC1)[C@H](NC(=O)Cc3cccs3)C2=O)C(=O)O

> <InChI>
1/C16H16N2O6S2/c1-8(19)24-6-9-7-26-15-12(14(21)18(15)13(9)16(22)23)17-11(20)5-10-3-2-4-25-10/h2-4,12,15H,5-7H2,1H3,(H,17,20)(H,22,23)

$$$$
760
  Marvin  11101114192D          

  7  7  0  0  1  0            999 V2000
    2.0198    0.8843    0.0000 N   0  0  0  0  0  0  0  0  0  0  0  0
    1.2352    0.6294    0.0000 C   0  0  2  0  0  0  0  0  0  0  0  0
    0.9803   -0.1553    0.0000 C   0  0  0  0  0  0  0  0  0  0  0  0
    0.1553   -0.1553    0.0000 O   0  0  0  0  0  0  0  0  0  0  0  0
   -0.0997    0.6294    0.0000 N   0  0  0  0  0  0  0  0  0  0  0  0
    0.5678    1.1143    0.0000 C   0  0  0  0  0  0  0  0  0  0  0  0
    0.5678    1.9393    0.0000 O   0  0  0  0  0  0  0  0  0  0  0  0
  2  1  1  6  0  0  0
  2  3  1  0  0  0  0
  3  4  1  0  0  0  0
  4  5  1  0  0  0  0
  5  6  1  0  0  0  0
  2  6  1  0  0  0  0
  6  7  2  0  0  0  0
M  END

> <ChembankId>
760

> <SMILES>
N[C@@H]1CONC1=O

> <InChI>
1/C3H6N2O2/c4-2-1-7-5-3(2)6/h2H,1,4H2,(H,5,6)

$$$$
764
  Marvin  11101114192D          

 28 31  0  0  0  0            999 V2000
   -0.0517   -9.6532    0.0000 F   0  0  0  0  0  0  0  0  0  0  0  0
    0.2033   -8.8685    0.0000 C   0  0  0  0  0  0  0  0  0  0  0  0
   -0.3488   -8.2554    0.0000 C   0  0  0  0  0  0  0  0  0  0  0  0
   -0.0938   -7.4708    0.0000 C   0  0  0  0  0  0  0  0  0  0  0  0
    0.7132   -7.2993    0.0000 C   0  0  0  0  0  0  0  0  0  0  0  0
    1.2652   -7.9124    0.0000 C   0  0  0  0  0  0  0  0  0  0  0  0
    1.0102   -8.6970    0.0000 C   0  0  0  0  0  0  0  0  0  0  0  0
    0.9681   -6.5147    0.0000 C   0  0  0  0  0  0  0  0  0  0  0  0
    1.7751   -6.3432    0.0000 O   0  0  0  0  0  0  0  0  0  0  0  0
    0.4161   -5.9016    0.0000 C   0  0  0  0  0  0  0  0  0  0  0  0
    0.6710   -5.1170    0.0000 C   0  0  0  0  0  0  0  0  0  0  0  0
    0.1190   -4.5039    0.0000 C   0  0  0  0  0  0  0  0  0  0  0  0
    0.3739   -3.7192    0.0000 N   0  0  0  0  0  0  0  0  0  0  0  0
   -0.1781   -3.1062    0.0000 C   0  0  0  0  0  0  0  0  0  0  0  0
    0.0768   -2.3215    0.0000 C   0  0  0  0  0  0  0  0  0  0  0  0
    0.8838   -2.1500    0.0000 C   0  0  0  0  0  0  0  0  0  0  0  0
    1.4358   -2.7631    0.0000 C   0  0  0  0  0  0  0  0  0  0  0  0
    1.1809   -3.5477    0.0000 C   0  0  0  0  0  0  0  0  0  0  0  0
    1.1387   -1.3654    0.0000 N   0  0  0  0  0  0  0  0  0  0  0  0
    0.6538   -0.6979    0.0000 C   0  0  0  0  0  0  0  0  0  0  0  0
   -0.1712   -0.6979    0.0000 O   0  0  0  0  0  0  0  0  0  0  0  0
    1.1387   -0.0305    0.0000 N   0  0  0  0  0  0  0  0  0  0  0  0
    1.9233   -0.2854    0.0000 C   0  0  0  0  0  0  0  0  0  0  0  0
    2.6378    0.1271    0.0000 C   0  0  0  0  0  0  0  0  0  0  0  0
    3.3523   -0.2854    0.0000 C   0  0  0  0  0  0  0  0  0  0  0  0
    3.3523   -1.1104    0.0000 C   0  0  0  0  0  0  0  0  0  0  0  0
    2.6378   -1.5229    0.0000 C   0  0  0  0  0  0  0  0  0  0  0  0
    1.9233   -1.1104    0.0000 C   0  0  0  0  0  0  0  0  0  0  0  0
  1  2  1  0  0  0  0
  2  3  4  0  0  0  0
  3  4  4  0  0  0  0
  4  5  4  0  0  0  0
  5  6  4  0  0  0  0
  6  7  4  0  0  0  0
  2  7  4  0  0  0  0
  5  8  1  0  0  0  0
  8  9  2  0  0  0  0
  8 10  1  0  0  0  0
 10 11  1  0  0  0  0
 11 12  1  0  0  0  0
 12 13  1  0  0  0  0
 13 14  1  0  0  0  0
 14 15  1  0  0  0  0
 15 16  1  0  0  0  0
 16 17  2  0  0  0  0
 17 18  1  0  0  0  0
 13 18  1  0  0  0  0
 16 19  1  0  0  0  0
 19 20  4  0  0  0  0
 20 21  2  0  0  0  0
 20 22  4  0  0  0  0
 22 23  4  0  0  0  0
 23 24  4  0  0  0  0
 24 25  4  0  0  0  0
 25 26  4  0  0  0  0
 26 27  4  0  0  0  0
 27 28  4  0  0  0  0
 19 28  4  0  0  0  0
 23 28  4  0  0  0  0
M  STY  1   1 DAT
M  SAL   1  1  22
M  SDT   1 MRV_IMPLICIT_H                                        
M  SDD   1     0.0000    0.0000    DR    ALL  0       0  
M  SED   1 IMPL_H1
M  END

> <ChembankId>
764

> <SMILES>
Fc1ccc(cc1)C(=O)CCCN2CCC(=CC2)n3c(=O)[nH]c4ccccc34

> <InChI>
1/C22H22FN3O2/c23-17-9-7-16(8-10-17)21(27)6-3-13-25-14-11-18(12-15-25)26-20-5-2-1-4-19(20)24-22(26)28/h1-2,4-5,7-11H,3,6,12-15H2,(H,24,28)

$$$$
766
  Marvin  11101114192D          

 23 26  0  0  0  0            999 V2000
    3.5330   -3.2587    0.0000 C   0  0  0  0  0  0  0  0  0  0  0  0
    3.8928   -2.5163    0.0000 C   0  0  0  0  0  0  0  0  0  0  0  0
    4.4247   -3.1470    0.0000 C   0  0  0  0  0  0  0  0  0  0  0  0
    5.2368   -3.0018    0.0000 C   0  0  0  0  0  0  0  0  0  0  0  0
    5.5171   -2.2259    0.0000 C   0  0  0  0  0  0  0  0  0  0  0  0
    4.9853   -1.5952    0.0000 C   0  0  0  0  0  0  0  0  0  0  0  0
    5.2655   -0.8192    0.0000 C   0  0  0  0  0  0  0  0  0  0  0  0
    6.0777   -0.6740    0.0000 C   0  0  0  0  0  0  0  0  0  0  0  0
    6.6095   -1.3047    0.0000 C   0  0  0  0  0  0  0  0  0  0  0  0
    7.4216   -1.1595    0.0000 C   0  0  0  0  0  0  0  0  0  0  0  0
    7.9534   -1.7902    0.0000 C   0  0  0  0  0  0  0  0  0  0  0  0
    8.7655   -1.6450    0.0000 O   0  0  0  0  0  0  0  0  0  0  0  0
    7.6731   -2.5662    0.0000 C   0  0  0  0  0  0  0  0  0  0  0  0
    6.8610   -2.7114    0.0000 C   0  0  0  0  0  0  0  0  0  0  0  0
    6.3292   -2.0807    0.0000 C   0  0  0  0  0  0  0  0  0  0  0  0
    6.0489   -2.8566    0.0000 C   0  0  0  0  0  0  0  0  0  0  0  0
    4.1731   -1.7404    0.0000 C   0  0  0  0  0  0  0  0  0  0  0  0
    3.5218   -1.2340    0.0000 C   0  0  0  0  0  0  0  0  0  0  0  0
    2.8390   -1.6970    0.0000 C   0  0  0  0  0  0  0  0  0  0  0  0
    3.0683   -2.4895    0.0000 C   0  0  0  0  0  0  0  0  0  0  0  0
    2.3074   -2.8084    0.0000 O   0  0  0  0  0  0  0  0  0  0  0  0
    2.9469   -3.3055    0.0000 C   0  0  0  0  0  0  0  0  0  0  0  0
    2.8255   -4.1215    0.0000 C   0  0  0  0  0  0  0  0  0  0  0  0
  1  2  1  0  0  0  0
  2  3  1  0  0  0  0
  3  4  1  0  0  0  0
  4  5  1  0  0  0  0
  5  6  1  0  0  0  0
  6  7  1  0  0  0  0
  7  8  1  0  0  0  0
  8  9  1  0  0  0  0
  9 10  2  0  0  0  0
 10 11  1  0  0  0  0
 11 12  2  0  0  0  0
 11 13  1  0  0  0  0
 13 14  1  0  0  0  0
 14 15  1  0  0  0  0
  5 15  1  0  0  0  0
  9 15  1  0  0  0  0
 15 16  1  0  0  0  0
  6 17  1  0  0  0  0
  2 17  1  0  0  0  0
 17 18  1  0  0  0  0
 18 19  1  0  0  0  0
 19 20  1  0  0  0  0
  2 20  1  0  0  0  0
 20 21  1  0  0  0  0
 20 22  1  0  0  0  0
 22 23  3  0  0  0  0
M  END

> <ChembankId>
766

> <SMILES>
CC12CCC3C(CCC4=CC(=O)CCC34C)C2CCC1(O)C#C

> <InChI>
1/C21H28O2/c1-4-21(23)12-9-18-16-6-5-14-13-15(22)7-10-19(14,2)17(16)8-11-20(18,21)3/h1,13,16-18,23H,5-12H2,2-3H3

$$$$
769
  Marvin  11101114192D          

 16 16  0  0  0  0            999 V2000
   -2.8579   -1.6500    0.0000 C   0  0  0  0  0  0  0  0  0  0  0  0
   -2.1434   -2.0625    0.0000 C   0  0  0  0  0  0  0  0  0  0  0  0
   -1.4289   -1.6500    0.0000 C   0  0  0  0  0  0  0  0  0  0  0  0
   -0.7145   -2.0625    0.0000 C   0  0  0  0  0  0  0  0  0  0  0  0
    0.0000   -1.6500    0.0000 O   0  0  0  0  0  0  0  0  0  0  0  0
    0.7145   -2.0625    0.0000 C   0  0  0  0  0  0  0  0  0  0  0  0
    1.4289   -1.6500    0.0000 C   0  0  0  0  0  0  0  0  0  0  0  0
    2.1434   -2.0625    0.0000 C   0  0  0  0  0  0  0  0  0  0  0  0
    2.1434   -2.8875    0.0000 C   0  0  0  0  0  0  0  0  0  0  0  0
    2.8579   -3.3000    0.0000 C   0  0  0  0  0  0  0  0  0  0  0  0
    3.5724   -2.8875    0.0000 C   0  0  0  0  0  0  0  0  0  0  0  0
    3.5724   -2.0625    0.0000 O   0  0  0  0  0  0  0  0  0  0  0  0
    4.2868   -3.3000    0.0000 N   0  0  0  0  0  0  0  0  0  0  0  0
    5.0013   -2.8875    0.0000 O   0  0  0  0  0  0  0  0  0  0  0  0
    1.4289   -3.3000    0.0000 C   0  0  0  0  0  0  0  0  0  0  0  0
    0.7145   -2.8875    0.0000 C   0  0  0  0  0  0  0  0  0  0  0  0
  1  2  1  0  0  0  0
  2  3  1  0  0  0  0
  3  4  1  0  0  0  0
  4  5  1  0  0  0  0
  5  6  1  0  0  0  0
  6  7  4  0  0  0  0
  7  8  4  0  0  0  0
  8  9  4  0  0  0  0
  9 10  1  0  0  0  0
 10 11  1  0  0  0  0
 11 12  2  0  0  0  0
 11 13  1  0  0  0  0
 13 14  1  0  0  0  0
  9 15  4  0  0  0  0
 15 16  4  0  0  0  0
  6 16  4  0  0  0  0
M  END

> <ChembankId>
769

> <SMILES>
CCCCOc1ccc(CC(=O)NO)cc1

> <InChI>
1/C12H17NO3/c1-2-3-8-16-11-6-4-10(5-7-11)9-12(14)13-15/h4-7,15H,2-3,8-9H2,1H3,(H,13,14)

$$$$
771
  Marvin  11101114192D          

 22 25  0  0  0  0            999 V2000
    3.7600    3.6489    0.0000 C   0  0  0  0  0  0  0  0  0  0  0  0
    3.7692    2.8239    0.0000 N   0  0  0  0  0  0  0  0  0  0  0  0
    4.4882    2.4194    0.0000 C   0  0  0  0  0  0  0  0  0  0  0  0
    4.4974    1.5945    0.0000 C   0  0  0  0  0  0  0  0  0  0  0  0
    3.7876    1.1740    0.0000 C   0  0  0  0  0  0  0  0  0  0  0  0
    3.7969    0.3491    0.0000 C   0  0  0  0  0  0  0  0  0  0  0  0
    4.5441   -0.0006    0.0000 C   0  0  0  0  0  0  0  0  0  0  0  0
    5.2476    0.4305    0.0000 C   0  0  0  0  0  0  0  0  0  0  0  0
    5.8749   -0.1053    0.0000 C   0  0  0  0  0  0  0  0  0  0  0  0
    5.5591   -0.8675    0.0000 S   0  0  0  0  0  0  0  0  0  0  0  0
    4.7367   -0.8028    0.0000 C   0  0  0  0  0  0  0  0  0  0  0  0
    4.2295   -1.4535    0.0000 C   0  0  0  0  0  0  0  0  0  0  0  0
    4.5958   -2.1927    0.0000 O   0  0  0  0  0  0  0  0  0  0  0  0
    3.4046   -1.4627    0.0000 C   0  0  0  0  0  0  0  0  0  0  0  0
    2.8830   -0.8235    0.0000 C   0  0  0  0  0  0  0  0  0  0  0  0
    2.0974   -1.0755    0.0000 C   0  0  0  0  0  0  0  0  0  0  0  0
    1.4864   -0.5211    0.0000 C   0  0  0  0  0  0  0  0  0  0  0  0
    1.6610    0.2852    0.0000 C   0  0  0  0  0  0  0  0  0  0  0  0
    2.4466    0.5372    0.0000 C   0  0  0  0  0  0  0  0  0  0  0  0
    3.0576   -0.0172    0.0000 C   0  0  0  0  0  0  0  0  0  0  0  0
    3.0686    1.5785    0.0000 C   0  0  0  0  0  0  0  0  0  0  0  0
    3.0594    2.4034    0.0000 C   0  0  0  0  0  0  0  0  0  0  0  0
  1  2  1  0  0  0  0
  2  3  1  0  0  0  0
  3  4  1  0  0  0  0
  4  5  1  0  0  0  0
  5  6  2  0  0  0  0
  6  7  1  0  0  0  0
  7  8  4  0  0  0  0
  8  9  4  0  0  0  0
  9 10  4  0  0  0  0
 10 11  4  0  0  0  0
  7 11  4  0  0  0  0
 11 12  1  0  0  0  0
 12 13  2  0  0  0  0
 12 14  1  0  0  0  0
 14 15  1  0  0  0  0
 15 16  4  0  0  0  0
 16 17  4  0  0  0  0
 17 18  4  0  0  0  0
 18 19  4  0  0  0  0
 19 20  4  0  0  0  0
  6 20  1  0  0  0  0
 15 20  4  0  0  0  0
  5 21  1  0  0  0  0
 21 22  1  0  0  0  0
  2 22  1  0  0  0  0
M  END

> <ChembankId>
771

> <SMILES>
CN1CCC(=C2c3ccsc3C(=O)Cc4ccccc24)CC1

> <InChI>
1/C19H19NOS/c1-20-9-6-13(7-10-20)18-15-5-3-2-4-14(15)12-17(21)19-16(18)8-11-22-19/h2-5,8,11H,6-7,9-10,12H2,1H3

$$$$
773
  Marvin  11101114192D          

 24 26  0  0  0  0            999 V2000
   -1.4289    0.8250    0.0000 Cl  0  0  0  0  0  0  0  0  0  0  0  0
   -0.7145    0.4125    0.0000 C   0  0  0  0  0  0  0  0  0  0  0  0
    0.0000    0.8250    0.0000 C   0  0  0  0  0  0  0  0  0  0  0  0
    0.7145    0.4125    0.0000 C   0  0  0  0  0  0  0  0  0  0  0  0
    0.7145   -0.4125    0.0000 C   0  0  0  0  0  0  0  0  0  0  0  0
    1.4289   -0.8250    0.0000 C   0  0  0  0  0  0  0  0  0  0  0  0
    1.4289   -1.6500    0.0000 O   0  0  0  0  0  0  0  0  0  0  0  0
    2.1434   -2.0625    0.0000 C   0  0  0  0  0  0  0  0  0  0  0  0
    2.8579   -1.6500    0.0000 C   0  0  0  0  0  0  0  0  0  0  0  0
    3.5724   -2.0625    0.0000 N   0  0  0  0  0  0  0  0  0  0  0  0
    4.3260   -1.7269    0.0000 C   0  0  0  0  0  0  0  0  0  0  0  0
    4.8781   -2.3400    0.0000 C   0  0  0  0  0  0  0  0  0  0  0  0
    4.4656   -3.0545    0.0000 N   0  0  0  0  0  0  0  0  0  0  0  0
    3.6586   -2.8830    0.0000 C   0  0  0  0  0  0  0  0  0  0  0  0
    2.1434   -2.8875    0.0000 C   0  0  0  0  0  0  0  0  0  0  0  0
    2.8579   -3.3000    0.0000 C   0  0  0  0  0  0  0  0  0  0  0  0
    2.8579   -4.1250    0.0000 C   0  0  0  0  0  0  0  0  0  0  0  0
    2.1434   -4.5375    0.0000 C   0  0  0  0  0  0  0  0  0  0  0  0
    2.1434   -5.3625    0.0000 Cl  0  0  0  0  0  0  0  0  0  0  0  0
    1.4289   -4.1250    0.0000 C   0  0  0  0  0  0  0  0  0  0  0  0
    1.4289   -3.3000    0.0000 C   0  0  0  0  0  0  0  0  0  0  0  0
    0.7145   -2.8875    0.0000 Cl  0  0  0  0  0  0  0  0  0  0  0  0
    0.0000   -0.8250    0.0000 C   0  0  0  0  0  0  0  0  0  0  0  0
   -0.7145   -0.4125    0.0000 C   0  0  0  0  0  0  0  0  0  0  0  0
  1  2  1  0  0  0  0
  2  3  4  0  0  0  0
  3  4  4  0  0  0  0
  4  5  4  0  0  0  0
  5  6  1  0  0  0  0
  6  7  1  0  0  0  0
  7  8  1  0  0  0  0
  8  9  1  0  0  0  0
  9 10  1  0  0  0  0
 10 11  4  0  0  0  0
 11 12  4  0  0  0  0
 12 13  4  0  0  0  0
 13 14  4  0  0  0  0
 10 14  4  0  0  0  0
  8 15  1  0  0  0  0
 15 16  4  0  0  0  0
 16 17  4  0  0  0  0
 17 18  4  0  0  0  0
 18 19  1  0  0  0  0
 18 20  4  0  0  0  0
 20 21  4  0  0  0  0
 15 21  4  0  0  0  0
 21 22  1  0  0  0  0
  5 23  4  0  0  0  0
 23 24  4  0  0  0  0
  2 24  4  0  0  0  0
M  END

> <ChembankId>
773

> <SMILES>
Clc1ccc(COC(Cn2ccnc2)c3ccc(Cl)cc3Cl)cc1

> <InChI>
1/C18H15Cl3N2O/c19-14-3-1-13(2-4-14)11-24-18(10-23-8-7-22-12-23)16-6-5-15(20)9-17(16)21/h1-9,12,18H,10-11H2

$$$$
776
  Marvin  11101114192D          

 12 13  0  0  0  0            999 V2000
    0.7145   -2.8875    0.0000 N   0  0  0  0  0  0  0  0  0  0  0  0
    1.4289   -2.4750    0.0000 N   0  0  0  0  0  0  0  0  0  0  0  0
    1.4289   -1.6500    0.0000 C   0  0  0  0  0  0  0  0  0  0  0  0
    0.7145   -1.2375    0.0000 N   0  0  0  0  0  0  0  0  0  0  0  0
    0.7145   -0.4125    0.0000 N   0  0  0  0  0  0  0  0  0  0  0  0
    1.4289    0.0000    0.0000 C   0  0  0  0  0  0  0  0  0  0  0  0
    2.1434   -0.4125    0.0000 C   0  0  0  0  0  0  0  0  0  0  0  0
    2.8579    0.0000    0.0000 C   0  0  0  0  0  0  0  0  0  0  0  0
    3.5724   -0.4125    0.0000 C   0  0  0  0  0  0  0  0  0  0  0  0
    3.5724   -1.2375    0.0000 C   0  0  0  0  0  0  0  0  0  0  0  0
    2.8579   -1.6500    0.0000 C   0  0  0  0  0  0  0  0  0  0  0  0
    2.1434   -1.2375    0.0000 C   0  0  0  0  0  0  0  0  0  0  0  0
  1  2  1  0  0  0  0
  2  3  1  0  0  0  0
  3  4  4  0  0  0  0
  4  5  4  0  0  0  0
  5  6  4  0  0  0  0
  6  7  4  0  0  0  0
  7  8  4  0  0  0  0
  8  9  4  0  0  0  0
  9 10  4  0  0  0  0
 10 11  4  0  0  0  0
 11 12  4  0  0  0  0
  3 12  4  0  0  0  0
  7 12  4  0  0  0  0
M  END

> <ChembankId>
776

> <SMILES>
NNc1nncc2ccccc12

> <InChI>
1/C8H8N4/c9-11-8-7-4-2-1-3-6(7)5-10-12-8/h1-5H,9H2,(H,11,12)

$$$$
777
  Marvin  11101114192D          

 20 22  0  0  1  0            999 V2000
   -2.1434   -2.8875    0.0000 O   0  0  0  0  0  0  0  0  0  0  0  0
   -1.4289   -2.4750    0.0000 C   0  0  0  0  0  0  0  0  0  0  0  0
   -1.4289   -1.6500    0.0000 C   0  0  0  0  0  0  0  0  0  0  0  0
   -0.7145   -1.2375    0.0000 C   0  0  0  0  0  0  0  0  0  0  0  0
    0.0000   -1.6500    0.0000 C   0  0  0  0  0  0  0  0  0  0  0  0
    0.0000   -2.4750    0.0000 C   0  0  0  0  0  0  0  0  0  0  0  0
   -0.7145   -2.8875    0.0000 C   0  0  0  0  0  0  0  0  0  0  0  0
    0.7145   -1.2375    0.0000 C   0  0  2  0  0  0  0  0  0  0  0  0
    0.7145   -0.4125    0.0000 C   0  0  0  0  0  0  0  0  0  0  0  0
    1.4289    0.0000    0.0000 C   0  0  0  0  0  0  0  0  0  0  0  0
    1.4289    0.8250    0.0000 O   0  0  0  0  0  0  0  0  0  0  0  0
    2.1434   -0.4125    0.0000 C   0  0  0  0  0  0  0  0  0  0  0  0
    2.8579    0.0000    0.0000 C   0  0  0  0  0  0  0  0  0  0  0  0
    2.8579    0.8250    0.0000 O   0  0  0  0  0  0  0  0  0  0  0  0
    3.5724   -0.4125    0.0000 C   0  0  0  0  0  0  0  0  0  0  0  0
    3.5724   -1.2375    0.0000 C   0  0  0  0  0  0  0  0  0  0  0  0
    4.2868   -1.6500    0.0000 O   0  0  0  0  0  0  0  0  0  0  0  0
    2.8579   -1.6500    0.0000 C   0  0  0  0  0  0  0  0  0  0  0  0
    2.1434   -1.2375    0.0000 C   0  0  0  0  0  0  0  0  0  0  0  0
    1.4289   -1.6500    0.0000 O   0  0  0  0  0  0  0  0  0  0  0  0
  1  2  1  0  0  0  0
  2  3  4  0  0  0  0
  3  4  4  0  0  0  0
  4  5  4  0  0  0  0
  5  6  4  0  0  0  0
  6  7  4  0  0  0  0
  2  7  4  0  0  0  0
  8  5  1  6  0  0  0
  8  9  1  0  0  0  0
  9 10  1  0  0  0  0
 10 11  2  0  0  0  0
 10 12  1  0  0  0  0
 12 13  4  0  0  0  0
 13 14  1  0  0  0  0
 13 15  4  0  0  0  0
 15 16  4  0  0  0  0
 16 17  1  0  0  0  0
 16 18  4  0  0  0  0
 18 19  4  0  0  0  0
 12 19  4  0  0  0  0
 19 20  1  0  0  0  0
  8 20  1  0  0  0  0
M  END

> <ChembankId>
777

> <SMILES>
Oc1ccc(cc1)[C@@H]2CC(=O)c3c(O)cc(O)cc3O2

> <InChI>
1/C15H12O5/c16-9-3-1-8(2-4-9)13-7-12(19)15-11(18)5-10(17)6-14(15)20-13/h1-6,13,16-18H,7H2

$$$$
779
  Marvin  11101114192D          

 17 17  0  0  0  0            999 V2000
   -3.5724    2.0625    0.0000 C   0  0  0  0  0  0  0  0  0  0  0  0
   -2.8579    1.6500    0.0000 C   0  0  0  0  0  0  0  0  0  0  0  0
   -2.1434    2.0625    0.0000 N   0  0  0  0  0  0  0  0  0  0  0  0
   -2.1434    2.8875    0.0000 C   0  0  0  0  0  0  0  0  0  0  0  0
   -1.4289    3.3000    0.0000 C   0  0  0  0  0  0  0  0  0  0  0  0
   -1.4289    1.6500    0.0000 C   0  0  0  0  0  0  0  0  0  0  0  0
   -0.7145    2.0625    0.0000 C   0  0  0  0  0  0  0  0  0  0  0  0
   -0.0000    1.6500    0.0000 O   0  0  0  0  0  0  0  0  0  0  0  0
    0.7145    2.0625    0.0000 C   0  0  0  0  0  0  0  0  0  0  0  0
    1.4289    1.6500    0.0000 O   0  0  0  0  0  0  0  0  0  0  0  0
    0.7145    2.8875    0.0000 C   0  0  0  0  0  0  0  0  0  0  0  0
   -0.0000    3.3000    0.0000 C   0  0  0  0  0  0  0  0  0  0  0  0
   -0.0000    4.1250    0.0000 C   0  0  0  0  0  0  0  0  0  0  0  0
    0.7145    4.5375    0.0000 C   0  0  0  0  0  0  0  0  0  0  0  0
    0.7145    5.3625    0.0000 N   0  0  0  0  0  0  0  0  0  0  0  0
    1.4289    4.1250    0.0000 C   0  0  0  0  0  0  0  0  0  0  0  0
    1.4289    3.3000    0.0000 C   0  0  0  0  0  0  0  0  0  0  0  0
  1  2  1  0  0  0  0
  2  3  1  0  0  0  0
  3  4  1  0  0  0  0
  4  5  1  0  0  0  0
  3  6  1  0  0  0  0
  6  7  1  0  0  0  0
  7  8  1  0  0  0  0
  8  9  1  0  0  0  0
  9 10  2  0  0  0  0
  9 11  1  0  0  0  0
 11 12  4  0  0  0  0
 12 13  4  0  0  0  0
 13 14  4  0  0  0  0
 14 15  1  0  0  0  0
 14 16  4  0  0  0  0
 16 17  4  0  0  0  0
 11 17  4  0  0  0  0
M  END

> <ChembankId>
779

> <SMILES>
CCN(CC)CCOC(=O)c1ccc(N)cc1

> <InChI>
1/C13H20N2O2/c1-3-15(4-2)9-10-17-13(16)11-5-7-12(14)8-6-11/h5-8H,3-4,9-10,14H2,1-2H3

$$$$
780
  Marvin  11101114192D          

 13 13  0  0  0  0            999 V2000
   -2.8579   -1.6500    0.0000 C   0  0  0  0  0  0  0  0  0  0  0  0
   -2.1434   -2.0625    0.0000 C   0  0  0  0  0  0  0  0  0  0  0  0
   -2.1434   -2.8875    0.0000 C   0  0  0  0  0  0  0  0  0  0  0  0
   -1.4289   -1.6500    0.0000 N   0  0  0  0  0  0  0  0  0  0  0  0
   -0.7145   -2.0625    0.0000 N   0  0  0  0  0  0  0  0  0  0  0  0
    0.0000   -1.6500    0.0000 C   0  0  0  0  0  0  0  0  0  0  0  0
    0.0000   -0.8250    0.0000 O   0  0  0  0  0  0  0  0  0  0  0  0
    0.7145   -2.0625    0.0000 C   0  0  0  0  0  0  0  0  0  0  0  0
    1.4289   -1.6500    0.0000 C   0  0  0  0  0  0  0  0  0  0  0  0
    2.1434   -2.0625    0.0000 C   0  0  0  0  0  0  0  0  0  0  0  0
    2.1434   -2.8875    0.0000 N   0  0  0  0  0  0  0  0  0  0  0  0
    1.4289   -3.3000    0.0000 C   0  0  0  0  0  0  0  0  0  0  0  0
    0.7145   -2.8875    0.0000 C   0  0  0  0  0  0  0  0  0  0  0  0
  1  2  1  0  0  0  0
  2  3  1  0  0  0  0
  2  4  1  0  0  0  0
  4  5  1  0  0  0  0
  5  6  1  0  0  0  0
  6  7  2  0  0  0  0
  6  8  1  0  0  0  0
  8  9  4  0  0  0  0
  9 10  4  0  0  0  0
 10 11  4  0  0  0  0
 11 12  4  0  0  0  0
 12 13  4  0  0  0  0
  8 13  4  0  0  0  0
M  END

> <ChembankId>
780

> <SMILES>
CC(C)NNC(=O)c1ccncc1

> <InChI>
1/C9H13N3O/c1-7(2)11-12-9(13)8-3-5-10-6-4-8/h3-7,11H,1-2H3,(H,12,13)

$$$$
782
  Marvin  11101114192D          

 31 35  0  0  1  0            999 V2000
    3.1042   -2.1348    0.0000 C   0  0  0  0  0  0  0  0  0  0  0  0
    3.8507   -2.5471    0.0000 C   0  0  0  0  0  0  0  0  0  0  0  0
    3.2877   -3.1871    0.0000 C   0  0  0  0  0  0  0  0  0  0  0  0
    4.1820   -1.7915    0.0000 O   0  0  0  0  0  0  0  0  0  0  0  0
    5.0030   -1.8731    0.0000 C   0  0  2  0  0  0  0  0  0  0  0  0
    5.7151   -1.4566    0.0000 C   0  0  0  0  0  0  0  0  0  0  0  0
    6.3313   -2.0052    0.0000 C   0  0  0  0  0  0  0  0  0  0  0  0
    7.1513   -1.9143    0.0000 C   0  0  0  0  0  0  0  0  0  0  0  0
    7.4826   -1.1588    0.0000 C   0  0  0  0  0  0  0  0  0  0  0  0
    8.3026   -1.0679    0.0000 C   0  0  2  0  0  0  0  0  0  0  0  0
    8.6074   -0.2842    0.0000 F   0  0  0  0  0  0  0  0  0  0  0  0
    8.7913   -1.7326    0.0000 C   0  0  0  0  0  0  0  0  0  0  0  0
    9.6112   -1.6417    0.0000 C   0  0  0  0  0  0  0  0  0  0  0  0
   10.0999   -2.3064    0.0000 C   0  0  0  0  0  0  0  0  0  0  0  0
   10.9337   -2.2141    0.0000 O   0  0  0  0  0  0  0  0  0  0  0  0
    9.7686   -3.0620    0.0000 C   0  0  0  0  0  0  0  0  0  0  0  0
    8.9486   -3.1529    0.0000 C   0  0  0  0  0  0  0  0  0  0  0  0
    8.4600   -2.4882    0.0000 C   0  0  0  0  0  0  0  0  0  0  0  0
    8.2945   -3.3351    0.0000 C   0  0  0  0  0  0  0  0  0  0  0  0
    7.6400   -2.5790    0.0000 C   0  0  0  0  0  0  0  0  0  0  0  0
    7.3087   -3.3346    0.0000 C   0  0  0  0  0  0  0  0  0  0  0  0
    7.5693   -4.1490    0.0000 O   0  0  0  0  0  0  0  0  0  0  0  0
    6.4887   -3.4254    0.0000 C   0  0  0  0  0  0  0  0  0  0  0  0
    6.0000   -2.7607    0.0000 C   0  0  0  0  0  0  0  0  0  0  0  0
    5.8582   -3.6147    0.0000 C   0  0  0  0  0  0  0  0  0  0  0  0
    5.1791   -2.6791    0.0000 C   0  0  2  0  0  0  0  0  0  0  0  0
    4.4669   -3.0956    0.0000 O   0  0  0  0  0  0  0  0  0  0  0  0
    5.0712   -3.6519    0.0000 C   0  0  0  0  0  0  0  0  0  0  0  0
    4.5684   -4.4007    0.0000 O   0  0  0  0  0  0  0  0  0  0  0  0
    5.4200   -4.4610    0.0000 C   0  0  0  0  0  0  0  0  0  0  0  0
    4.9271   -5.1226    0.0000 O   0  0  0  0  0  0  0  0  0  0  0  0
  1  2  1  0  0  0  0
  2  3  1  0  0  0  0
  2  4  1  0  0  0  0
  5  4  1  6  0  0  0
  5  6  1  0  0  0  0
  6  7  1  0  0  0  0
  7  8  1  0  0  0  0
  8  9  1  0  0  0  0
  9 10  1  0  0  0  0
 10 11  1  6  0  0  0
 10 12  1  0  0  0  0
 12 13  2  0  0  0  0
 13 14  1  0  0  0  0
 14 15  2  0  0  0  0
 14 16  1  0  0  0  0
 16 17  2  0  0  0  0
 17 18  1  0  0  0  0
 12 18  1  0  0  0  0
 18 19  1  0  0  0  0
 18 20  1  0  0  0  0
  8 20  1  0  0  0  0
 20 21  1  0  0  0  0
 21 22  1  0  0  0  0
 21 23  1  0  0  0  0
 23 24  1  0  0  0  0
  7 24  1  0  0  0  0
 24 25  1  0  0  0  0
 24 26  1  0  0  0  0
  5 26  1  0  0  0  0
 26 27  1  0  0  0  0
  2 27  1  0  0  0  0
 26 28  1  1  0  0  0
 28 29  2  0  0  0  0
 28 30  1  0  0  0  0
 30 31  1  0  0  0  0
M  END

> <ChembankId>
782

> <SMILES>
CC1(C)O[C@@H]2CC3C4C[C@H](F)C5=CC(=O)C=CC5(C)C4C(O)CC3(C)[C@@]2(O1)C(=O)CO

> <InChI>
1/C24H31FO6/c1-21(2)30-19-9-14-13-8-16(25)15-7-12(27)5-6-22(15,3)20(13)17(28)10-23(14,4)24(19,31-21)18(29)11-26/h5-7,13-14,16-17,19-20,26,28H,8-11H2,1-4H3

$$$$
783
  Marvin  11101114192D          

 31 35  0  0  1  0            999 V2000
    0.5859   -2.6304    0.0000 C   0  0  0  0  0  0  0  0  0  0  0  0
    0.5859   -1.8054    0.0000 O   0  0  0  0  0  0  0  0  0  0  0  0
   -0.1286   -1.3929    0.0000 C   0  0  2  0  0  0  0  0  0  0  0  0
   -0.1296   -2.2179    0.0000 C   0  0  0  0  0  0  0  0  0  0  0  0
   -0.8445   -2.6295    0.0000 C   0  0  1  0  0  0  0  0  0  0  0  0
   -0.8455   -3.4545    0.0000 C   0  0  0  0  0  0  0  0  0  0  0  0
   -1.5605   -3.8661    0.0000 O   0  0  0  0  0  0  0  0  0  0  0  0
   -1.5615   -4.6911    0.0000 C   0  0  0  0  0  0  0  0  0  0  0  0
   -0.8475   -5.1045    0.0000 O   0  0  0  0  0  0  0  0  0  0  0  0
   -2.2764   -5.1028    0.0000 C   0  0  0  0  0  0  0  0  0  0  0  0
   -2.2774   -5.9278    0.0000 C   0  0  0  0  0  0  0  0  0  0  0  0
   -2.9924   -6.3394    0.0000 N   0  0  0  0  0  0  0  0  0  0  0  0
   -3.7064   -5.9261    0.0000 C   0  0  0  0  0  0  0  0  0  0  0  0
   -3.7054   -5.1011    0.0000 C   0  0  0  0  0  0  0  0  0  0  0  0
   -4.4193   -4.6877    0.0000 Br  0  0  0  0  0  0  0  0  0  0  0  0
   -2.9904   -4.6894    0.0000 C   0  0  0  0  0  0  0  0  0  0  0  0
   -1.5585   -2.2161    0.0000 C   0  0  0  0  0  0  0  0  0  0  0  0
   -1.5575   -1.3911    0.0000 N   0  0  0  0  0  0  0  0  0  0  0  0
   -2.2715   -0.9778    0.0000 C   0  0  0  0  0  0  0  0  0  0  0  0
   -0.8425   -0.9795    0.0000 C   0  0  2  0  0  0  0  0  0  0  0  0
   -0.8411   -0.1554    0.0000 C   0  0  0  0  0  0  0  0  0  0  0  0
   -0.1286    0.2571    0.0000 C   0  0  0  0  0  0  0  0  0  0  0  0
    0.1714    1.1143    0.0000 C   0  0  0  0  0  0  0  0  0  0  0  0
    0.9964    1.1143    0.0000 N   0  0  0  0  0  0  0  0  0  0  0  0
    1.4719    1.7885    0.0000 C   0  0  0  0  0  0  0  0  0  0  0  0
    1.3018    0.2571    0.0000 C   0  0  0  0  0  0  0  0  0  0  0  0
    2.0143   -0.1554    0.0000 C   0  0  0  0  0  0  0  0  0  0  0  0
    2.0143   -0.9804    0.0000 C   0  0  0  0  0  0  0  0  0  0  0  0
    1.3018   -1.3929    0.0000 C   0  0  0  0  0  0  0  0  0  0  0  0
    0.5839   -0.9804    0.0000 C   0  0  0  0  0  0  0  0  0  0  0  0
    0.5839   -0.1554    0.0000 C   0  0  0  0  0  0  0  0  0  0  0  0
  1  2  1  0  0  0  0
  3  2  1  6  0  0  0
  3  4  1  0  0  0  0
  4  5  1  0  0  0  0
  5  6  1  1  0  0  0
  6  7  1  0  0  0  0
  7  8  1  0  0  0  0
  8  9  2  0  0  0  0
  8 10  1  0  0  0  0
 10 11  4  0  0  0  0
 11 12  4  0  0  0  0
 12 13  4  0  0  0  0
 13 14  4  0  0  0  0
 14 15  1  0  0  0  0
 14 16  4  0  0  0  0
 10 16  4  0  0  0  0
  5 17  1  0  0  0  0
 17 18  1  0  0  0  0
 18 19  1  0  0  0  0
 20 18  1  6  0  0  0
  3 20  1  0  0  0  0
 20 21  1  0  0  0  0
 21 22  1  0  0  0  0
 22 23  4  0  0  0  0
 23 24  4  0  0  0  0
 24 25  1  0  0  0  0
 24 26  4  0  0  0  0
 26 27  4  0  0  0  0
 27 28  4  0  0  0  0
 28 29  4  0  0  0  0
 29 30  4  0  0  0  0
  3 30  1  0  0  0  0
 30 31  4  0  0  0  0
 22 31  4  0  0  0  0
 26 31  4  0  0  0  0
M  END

> <ChembankId>
783

> <SMILES>
CO[C@@]12C[C@@H](COC(=O)c3cncc(Br)c3)CN(C)[C@@H]2Cc4cn(C)c5cccc1c45

> <InChI>
1/C24H26BrN3O3/c1-27-13-17-8-21-24(30-3,19-5-4-6-20(27)22(17)19)9-15(12-28(21)2)14-31-23(29)16-7-18(25)11-26-10-16/h4-7,10-11,13,15,21H,8-9,12,14H2,1-3H3

$$$$
785
  Marvin  11101114192D          

 21 22  0  0  0  0            999 V2000
    3.5724   -2.8875    0.0000 C   0  0  0  0  0  0  0  0  0  0  0  0
    3.5724   -3.7125    0.0000 C   0  0  0  0  0  0  0  0  0  0  0  0
    2.8579   -4.1250    0.0000 C   0  0  0  0  0  0  0  0  0  0  0  0
    2.1434   -3.7125    0.0000 C   0  0  0  0  0  0  0  0  0  0  0  0
    2.1434   -2.8875    0.0000 O   0  0  0  0  0  0  0  0  0  0  0  0
    1.4289   -4.1250    0.0000 C   0  0  0  0  0  0  0  0  0  0  0  0
    1.4289   -4.9500    0.0000 C   0  0  0  0  0  0  0  0  0  0  0  0
    0.7145   -5.3625    0.0000 C   0  0  0  0  0  0  0  0  0  0  0  0
    0.0000   -4.9500    0.0000 C   0  0  0  0  0  0  0  0  0  0  0  0
   -0.7145   -5.3625    0.0000 O   0  0  0  0  0  0  0  0  0  0  0  0
    0.0000   -4.1250    0.0000 C   0  0  0  0  0  0  0  0  0  0  0  0
    0.7145   -3.7125    0.0000 C   0  0  0  0  0  0  0  0  0  0  0  0
    4.2868   -4.1250    0.0000 N   0  0  0  0  0  0  0  0  0  0  0  0
    5.0013   -3.7125    0.0000 C   0  0  0  0  0  0  0  0  0  0  0  0
    5.7158   -4.1250    0.0000 C   0  0  0  0  0  0  0  0  0  0  0  0
    6.4302   -3.7125    0.0000 C   0  0  0  0  0  0  0  0  0  0  0  0
    7.1447   -4.1250    0.0000 C   0  0  0  0  0  0  0  0  0  0  0  0
    7.1447   -4.9500    0.0000 C   0  0  0  0  0  0  0  0  0  0  0  0
    7.8592   -5.3625    0.0000 O   0  0  0  0  0  0  0  0  0  0  0  0
    6.4302   -5.3625    0.0000 C   0  0  0  0  0  0  0  0  0  0  0  0
    5.7158   -4.9500    0.0000 C   0  0  0  0  0  0  0  0  0  0  0  0
  1  2  1  0  0  0  0
  2  3  1  0  0  0  0
  3  4  1  0  0  0  0
  4  5  1  0  0  0  0
  4  6  1  0  0  0  0
  6  7  4  0  0  0  0
  7  8  4  0  0  0  0
  8  9  4  0  0  0  0
  9 10  1  0  0  0  0
  9 11  4  0  0  0  0
 11 12  4  0  0  0  0
  6 12  4  0  0  0  0
  2 13  1  0  0  0  0
 13 14  1  0  0  0  0
 14 15  1  0  0  0  0
 15 16  4  0  0  0  0
 16 17  4  0  0  0  0
 17 18  4  0  0  0  0
 18 19  1  0  0  0  0
 18 20  4  0  0  0  0
 20 21  4  0  0  0  0
 15 21  4  0  0  0  0
M  END

> <ChembankId>
785

> <SMILES>
CC(CC(O)c1ccc(O)cc1)NCc2ccc(O)cc2

> <InChI>
1/C17H21NO3/c1-12(18-11-13-2-6-15(19)7-3-13)10-17(21)14-4-8-16(20)9-5-14/h2-9,12,17-21H,10-11H2,1H3/t12-,17+/m0/s1

$$$$
786
  Marvin  11101114192D          

 26 29  0  0  0  0            999 V2000
    3.0892    4.8695    0.0000 C   0  0  0  0  0  0  0  0  0  0  0  0
    3.0892    4.0445    0.0000 N   0  0  0  0  0  0  0  0  0  0  0  0
    3.8037    3.6320    0.0000 C   0  0  0  0  0  0  0  0  0  0  0  0
    3.8037    2.8070    0.0000 C   0  0  0  0  0  0  0  0  0  0  0  0
    3.0892    2.3945    0.0000 N   0  0  0  0  0  0  0  0  0  0  0  0
    3.0892    1.5695    0.0000 C   0  0  0  0  0  0  0  0  0  0  0  0
    3.8037    1.1570    0.0000 C   0  0  0  0  0  0  0  0  0  0  0  0
    4.5181    1.5695    0.0000 O   0  0  0  0  0  0  0  0  0  0  0  0
    3.8037    0.3320    0.0000 N   0  0  0  0  0  0  0  0  0  0  0  0
    4.5470   -0.0260    0.0000 C   0  0  0  0  0  0  0  0  0  0  0  0
    5.1517    0.5352    0.0000 C   0  0  0  0  0  0  0  0  0  0  0  0
    5.9401    0.2920    0.0000 C   0  0  0  0  0  0  0  0  0  0  0  0
    6.1237   -0.5123    0.0000 C   0  0  0  0  0  0  0  0  0  0  0  0
    5.5189   -1.0735    0.0000 C   0  0  0  0  0  0  0  0  0  0  0  0
    4.7305   -0.8303    0.0000 C   0  0  0  0  0  0  0  0  0  0  0  0
    4.2162   -1.4753    0.0000 C   0  0  0  0  0  0  0  0  0  0  0  0
    4.5741   -2.2186    0.0000 O   0  0  0  0  0  0  0  0  0  0  0  0
    3.3912   -1.4753    0.0000 N   0  0  0  0  0  0  0  0  0  0  0  0
    2.8768   -0.8303    0.0000 C   0  0  0  0  0  0  0  0  0  0  0  0
    2.0884   -1.0735    0.0000 C   0  0  0  0  0  0  0  0  0  0  0  0
    1.4837   -0.5123    0.0000 C   0  0  0  0  0  0  0  0  0  0  0  0
    1.6673    0.2920    0.0000 C   0  0  0  0  0  0  0  0  0  0  0  0
    2.4556    0.5352    0.0000 N   0  0  0  0  0  0  0  0  0  0  0  0
    3.0604   -0.0260    0.0000 C   0  0  0  0  0  0  0  0  0  0  0  0
    2.3747    2.8070    0.0000 C   0  0  0  0  0  0  0  0  0  0  0  0
    2.3747    3.6320    0.0000 C   0  0  0  0  0  0  0  0  0  0  0  0
  1  2  1  0  0  0  0
  2  3  1  0  0  0  0
  3  4  1  0  0  0  0
  4  5  1  0  0  0  0
  5  6  1  0  0  0  0
  6  7  1  0  0  0  0
  7  8  2  0  0  0  0
  7  9  1  0  0  0  0
  9 10  1  0  0  0  0
 10 11  4  0  0  0  0
 11 12  4  0  0  0  0
 12 13  4  0  0  0  0
 13 14  4  0  0  0  0
 14 15  4  0  0  0  0
 10 15  4  0  0  0  0
 15 16  1  0  0  0  0
 16 17  2  0  0  0  0
 16 18  1  0  0  0  0
 18 19  1  0  0  0  0
 19 20  4  0  0  0  0
 20 21  4  0  0  0  0
 21 22  4  0  0  0  0
 22 23  4  0  0  0  0
 23 24  4  0  0  0  0
  9 24  1  0  0  0  0
 19 24  4  0  0  0  0
  5 25  1  0  0  0  0
 25 26  1  0  0  0  0
  2 26  1  0  0  0  0
M  END

> <ChembankId>
786

> <SMILES>
CN1CCN(CC(=O)N2c3ccccc3C(=O)Nc4cccnc24)CC1

> <InChI>
1/C19H21N5O2/c1-22-9-11-23(12-10-22)13-17(25)24-16-7-3-2-5-14(16)19(26)21-15-6-4-8-20-18(15)24/h2-8H,9-13H2,1H3,(H,21,26)

$$$$
793
  Marvin  11101114192D          

 23 24  0  0  0  0            999 V2000
   -3.9381   -1.2277    0.0000 C   0  0  0  0  0  0  0  0  0  0  0  0
   -3.1279   -1.0718    0.0000 C   0  0  0  0  0  0  0  0  0  0  0  0
   -2.5878   -1.6954    0.0000 N   0  0  0  0  0  0  0  0  0  0  0  0
   -2.8579   -2.4750    0.0000 C   0  0  0  0  0  0  0  0  0  0  0  0
   -3.6680   -2.6309    0.0000 C   0  0  0  0  0  0  0  0  0  0  0  0
   -1.7777   -1.5395    0.0000 C   0  0  0  0  0  0  0  0  0  0  0  0
   -1.2376   -2.1632    0.0000 C   0  0  0  0  0  0  0  0  0  0  0  0
   -0.4275   -2.0073    0.0000 O   0  0  0  0  0  0  0  0  0  0  0  0
    0.1126   -2.6309    0.0000 C   0  0  0  0  0  0  0  0  0  0  0  0
   -0.1574   -3.4105    0.0000 O   0  0  0  0  0  0  0  0  0  0  0  0
    0.9227   -2.4750    0.0000 C   0  0  0  0  0  0  0  0  0  0  0  0
    1.4628   -3.0986    0.0000 C   0  0  0  0  0  0  0  0  0  0  0  0
    2.2730   -2.9427    0.0000 C   0  0  0  0  0  0  0  0  0  0  0  0
    2.8131   -3.5664    0.0000 C   0  0  0  0  0  0  0  0  0  0  0  0
    2.5430   -4.3459    0.0000 C   0  0  0  0  0  0  0  0  0  0  0  0
    1.7329   -4.5018    0.0000 C   0  0  0  0  0  0  0  0  0  0  0  0
    1.1928   -3.8782    0.0000 C   0  0  0  0  0  0  0  0  0  0  0  0
    1.1928   -1.6954    0.0000 C   0  0  0  0  0  0  0  0  0  0  0  0
    0.6527   -1.0718    0.0000 C   0  0  0  0  0  0  0  0  0  0  0  0
    0.9227   -0.2923    0.0000 C   0  0  0  0  0  0  0  0  0  0  0  0
    1.7329   -0.1363    0.0000 C   0  0  0  0  0  0  0  0  0  0  0  0
    2.2730   -0.7600    0.0000 C   0  0  0  0  0  0  0  0  0  0  0  0
    2.0029   -1.5395    0.0000 C   0  0  0  0  0  0  0  0  0  0  0  0
  1  2  1  0  0  0  0
  2  3  1  0  0  0  0
  3  4  1  0  0  0  0
  4  5  1  0  0  0  0
  3  6  1  0  0  0  0
  6  7  1  0  0  0  0
  7  8  1  0  0  0  0
  8  9  1  0  0  0  0
  9 10  2  0  0  0  0
  9 11  1  0  0  0  0
 11 12  1  0  0  0  0
 12 13  1  0  0  0  0
 13 14  1  0  0  0  0
 14 15  1  0  0  0  0
 15 16  1  0  0  0  0
 16 17  1  0  0  0  0
 12 17  1  0  0  0  0
 11 18  1  0  0  0  0
 18 19  4  0  0  0  0
 19 20  4  0  0  0  0
 20 21  4  0  0  0  0
 21 22  4  0  0  0  0
 22 23  4  0  0  0  0
 18 23  4  0  0  0  0
M  END

> <ChembankId>
793

> <SMILES>
CCN(CC)CCOC(=O)C(C1CCCCC1)c2ccccc2

> <InChI>
1/C20H31NO2/c1-3-21(4-2)15-16-23-20(22)19(17-11-7-5-8-12-17)18-13-9-6-10-14-18/h5,7-8,11-12,18-19H,3-4,6,9-10,13-16H2,1-2H3

$$$$
794
  Marvin  11101114192D          

 14 15  0  0  0  0            999 V2000
    0.7145   -0.4125    0.0000 N   0  0  0  0  0  0  0  0  0  0  0  0
    0.7145   -1.2375    0.0000 C   0  0  0  0  0  0  0  0  0  0  0  0
    1.4289   -1.6500    0.0000 C   0  0  0  0  0  0  0  0  0  0  0  0
    1.4289   -2.4750    0.0000 C   0  0  0  0  0  0  0  0  0  0  0  0
    0.7145   -2.8875    0.0000 C   0  0  0  0  0  0  0  0  0  0  0  0
    0.0000   -2.4750    0.0000 N   0  0  0  0  0  0  0  0  0  0  0  0
    0.0000   -1.6500    0.0000 C   0  0  0  0  0  0  0  0  0  0  0  0
   -0.7145   -1.2375    0.0000 O   0  0  0  0  0  0  0  0  0  0  0  0
    2.1434   -2.8875    0.0000 C   0  0  0  0  0  0  0  0  0  0  0  0
    2.8579   -2.4750    0.0000 C   0  0  0  0  0  0  0  0  0  0  0  0
    3.5724   -2.8875    0.0000 C   0  0  0  0  0  0  0  0  0  0  0  0
    3.5724   -3.7125    0.0000 N   0  0  0  0  0  0  0  0  0  0  0  0
    2.8579   -4.1250    0.0000 C   0  0  0  0  0  0  0  0  0  0  0  0
    2.1434   -3.7125    0.0000 C   0  0  0  0  0  0  0  0  0  0  0  0
  1  2  1  0  0  0  0
  2  3  4  0  0  0  0
  3  4  4  0  0  0  0
  4  5  4  0  0  0  0
  5  6  4  0  0  0  0
  6  7  4  0  0  0  0
  2  7  4  0  0  0  0
  7  8  2  0  0  0  0
  4  9  1  0  0  0  0
  9 10  4  0  0  0  0
 10 11  4  0  0  0  0
 11 12  4  0  0  0  0
 12 13  4  0  0  0  0
 13 14  4  0  0  0  0
  9 14  4  0  0  0  0
M  STY  1   1 DAT
M  SAL   1  1   6
M  SDT   1 MRV_IMPLICIT_H                                        
M  SDD   1     0.0000    0.0000    DR    ALL  0       0  
M  SED   1 IMPL_H1
M  END

> <ChembankId>
794

> <SMILES>
Nc1cc(c[nH]c1=O)c2ccncc2

> <InChI>
1/C10H9N3O/c11-9-5-8(6-13-10(9)14)7-1-3-12-4-2-7/h1-6H,11H2,(H,13,14)

$$$$
795
  Marvin  11101114192D          

 23 25  0  0  1  0            999 V2000
   -2.8579   -1.6500    0.0000 C   0  0  0  0  0  0  0  0  0  0  0  0
   -2.1434   -1.2375    0.0000 N   0  0  0  0  0  0  0  0  0  0  0  0
   -1.4289   -1.6500    0.0000 C   0  0  2  0  0  0  0  0  0  0  0  0
   -1.4289   -2.4750    0.0000 C   0  0  2  0  0  0  0  0  0  0  0  0
   -2.1434   -2.8875    0.0000 O   0  0  0  0  0  0  0  0  0  0  0  0
   -0.7145   -2.8875    0.0000 C   0  0  2  0  0  0  0  0  0  0  0  0
   -0.7145   -3.7125    0.0000 N   0  0  0  0  0  0  0  0  0  0  0  0
   -0.0000   -4.1250    0.0000 C   0  0  0  0  0  0  0  0  0  0  0  0
   -0.0000   -2.4750    0.0000 C   0  0  1  0  0  0  0  0  0  0  0  0
    0.7145   -2.8875    0.0000 O   0  0  0  0  0  0  0  0  0  0  0  0
    1.4289   -2.4750    0.0000 C   0  0  2  0  0  0  0  0  0  0  0  0
    1.4289   -3.3000    0.0000 O   0  0  0  0  0  0  0  0  0  0  0  0
    1.4289   -1.6500    0.0000 C   0  0  1  0  0  0  0  0  0  0  0  0
    2.1434   -1.2375    0.0000 O   0  0  0  0  0  0  0  0  0  0  0  0
    2.8579   -1.6500    0.0000 C   0  0  2  0  0  0  0  0  0  0  0  0
    3.5724   -1.2375    0.0000 C   0  0  0  0  0  0  0  0  0  0  0  0
    2.8579   -2.4750    0.0000 C   0  0  0  0  0  0  0  0  0  0  0  0
    2.1434   -2.8875    0.0000 C   0  0  0  0  0  0  0  0  0  0  0  0
    2.1434   -3.7125    0.0000 O   0  0  0  0  0  0  0  0  0  0  0  0
    0.7145   -1.2375    0.0000 O   0  0  0  0  0  0  0  0  0  0  0  0
    0.0000   -1.6500    0.0000 C   0  0  2  0  0  0  0  0  0  0  0  0
   -0.7145   -1.2375    0.0000 C   0  0  1  0  0  0  0  0  0  0  0  0
   -0.7145   -0.4125    0.0000 O   0  0  0  0  0  0  0  0  0  0  0  0
  1  2  1  0  0  0  0
  3  2  1  1  0  0  0
  3  4  1  0  0  0  0
  4  5  1  1  0  0  0
  4  6  1  0  0  0  0
  6  7  1  1  0  0  0
  7  8  1  0  0  0  0
  6  9  1  0  0  0  0
  9 10  1  6  0  0  0
 10 11  1  0  0  0  0
 11 12  1  1  0  0  0
 11 13  1  0  0  0  0
 13 14  1  6  0  0  0
 14 15  1  0  0  0  0
 15 16  1  6  0  0  0
 15 17  1  0  0  0  0
 17 18  1  0  0  0  0
 11 18  1  0  0  0  0
 18 19  2  0  0  0  0
 13 20  1  0  0  0  0
 21 20  1  1  0  0  0
  9 21  1  0  0  0  0
 21 22  1  0  0  0  0
  3 22  1  0  0  0  0
 22 23  1  6  0  0  0
M  END

> <ChembankId>
795

> <SMILES>
CN[C@@H]1[C@H](O)[C@H](NC)[C@H]2O[C@]3(O)[C@@H](O[C@H](C)CC3=O)O[C@@H]2[C@H]1O

> <InChI>
1/C14H24N2O7/c1-5-4-6(17)14(20)13(21-5)22-12-10(19)7(15-2)9(18)8(16-3)11(12)23-14/h5,7-13,15-16,18-20H,4H2,1-3H3

$$$$
796
  Marvin  11101114192D          

 18 18  0  0  0  0            999 V2000
   -0.4599   -1.3871    0.0000 C   0  0  0  0  0  0  0  0  0  0  0  0
    0.1121   -0.7926    0.0000 C   0  0  0  0  0  0  0  0  0  0  0  0
   -0.1167    0.0000    0.0000 C   0  0  0  0  0  0  0  0  0  0  0  0
    0.4553    0.5945    0.0000 C   0  0  0  0  0  0  0  0  0  0  0  0
    1.2562    0.3963    0.0000 C   0  0  0  0  0  0  0  0  0  0  0  0
    1.8282    0.9908    0.0000 C   0  0  0  0  0  0  0  0  0  0  0  0
    1.4850   -0.3963    0.0000 C   0  0  0  0  0  0  0  0  0  0  0  0
    2.2858   -0.5945    0.0000 O   0  0  0  0  0  0  0  0  0  0  0  0
    2.8579    0.0000    0.0000 C   0  0  0  0  0  0  0  0  0  0  0  0
    3.6587   -0.1982    0.0000 C   0  0  0  0  0  0  0  0  0  0  0  0
    4.2308    0.3963    0.0000 C   0  0  0  0  0  0  0  0  0  0  0  0
    5.0316    0.1982    0.0000 C   0  0  0  0  0  0  0  0  0  0  0  0
    4.8335   -0.6027    0.0000 C   0  0  0  0  0  0  0  0  0  0  0  0
    5.2298    0.9990    0.0000 C   0  0  0  0  0  0  0  0  0  0  0  0
    5.8325    0.0000    0.0000 C   0  0  0  0  0  0  0  0  0  0  0  0
    6.4045    0.5945    0.0000 O   0  0  0  0  0  0  0  0  0  0  0  0
    6.0613   -0.7926    0.0000 O   0  0  0  0  0  0  0  0  0  0  0  0
    0.9130   -0.9908    0.0000 C   0  0  0  0  0  0  0  0  0  0  0  0
  1  2  1  0  0  0  0
  2  3  4  0  0  0  0
  3  4  4  0  0  0  0
  4  5  4  0  0  0  0
  5  6  1  0  0  0  0
  5  7  4  0  0  0  0
  7  8  1  0  0  0  0
  8  9  1  0  0  0  0
  9 10  1  0  0  0  0
 10 11  1  0  0  0  0
 11 12  1  0  0  0  0
 12 13  1  0  0  0  0
 12 14  1  0  0  0  0
 12 15  1  0  0  0  0
 15 16  2  0  0  0  0
 15 17  1  0  0  0  0
  7 18  4  0  0  0  0
  2 18  4  0  0  0  0
M  END

> <ChembankId>
796

> <SMILES>
Cc1ccc(C)c(OCCCC(C)(C)C(=O)O)c1

> <InChI>
1/C15H22O3/c1-11-6-7-12(2)13(10-11)18-9-5-8-15(3,4)14(16)17/h6-7,10H,5,8-9H2,1-4H3,(H,16,17)

$$$$
799
  Marvin  11101114192D          

 17 18  0  0  0  0            999 V2000
    2.0367   -1.2991    0.0000 C   0  0  0  0  0  0  0  0  0  0  0  0
    2.0367   -2.1241    0.0000 C   0  0  0  0  0  0  0  0  0  0  0  0
    2.7041   -2.6090    0.0000 N   0  0  0  0  0  0  0  0  0  0  0  0
    2.4492   -3.3937    0.0000 N   0  0  0  0  0  0  0  0  0  0  0  0
    1.6242   -3.3937    0.0000 C   0  0  0  0  0  0  0  0  0  0  0  0
    1.1393   -4.0611    0.0000 N   0  0  0  0  0  0  0  0  0  0  0  0
    0.3188   -3.9749    0.0000 S   0  0  0  0  0  0  0  0  0  0  0  0
    0.4050   -3.1544    0.0000 O   0  0  0  0  0  0  0  0  0  0  0  0
    0.2326   -4.7953    0.0000 O   0  0  0  0  0  0  0  0  0  0  0  0
   -0.5017   -3.8886    0.0000 C   0  0  0  0  0  0  0  0  0  0  0  0
   -0.9866   -4.5561    0.0000 C   0  0  0  0  0  0  0  0  0  0  0  0
   -1.8071   -4.4698    0.0000 C   0  0  0  0  0  0  0  0  0  0  0  0
   -2.1426   -3.7161    0.0000 C   0  0  0  0  0  0  0  0  0  0  0  0
   -2.9631   -3.6299    0.0000 N   0  0  0  0  0  0  0  0  0  0  0  0
   -1.6577   -3.0487    0.0000 C   0  0  0  0  0  0  0  0  0  0  0  0
   -0.8372   -3.1349    0.0000 C   0  0  0  0  0  0  0  0  0  0  0  0
    1.3693   -2.6090    0.0000 S   0  0  0  0  0  0  0  0  0  0  0  0
  1  2  1  0  0  0  0
  2  3  4  0  0  0  0
  3  4  4  0  0  0  0
  4  5  4  0  0  0  0
  5  6  1  0  0  0  0
  6  7  1  0  0  0  0
  7  8  2  0  0  0  0
  7  9  2  0  0  0  0
  7 10  1  0  0  0  0
 10 11  4  0  0  0  0
 11 12  4  0  0  0  0
 12 13  4  0  0  0  0
 13 14  1  0  0  0  0
 13 15  4  0  0  0  0
 15 16  4  0  0  0  0
 10 16  4  0  0  0  0
  5 17  4  0  0  0  0
  2 17  4  0  0  0  0
M  END

> <ChembankId>
799

> <SMILES>
Cc1nnc(NS(=O)(=O)c2ccc(N)cc2)s1

> <InChI>
1/C9H10N4O2S2/c1-6-11-12-9(16-6)13-17(14,15)8-4-2-7(10)3-5-8/h2-5H,10H2,1H3,(H,12,13)

$$$$
800
  Marvin  11101114192D          

 15 15  0  0  1  0            999 V2000
    1.3184   -1.2375    0.0000 C   0  0  0  0  0  0  0  0  0  0  0  0
    2.1434   -1.2375    0.0000 C   0  0  2  0  0  0  0  0  0  0  0  0
    2.9684   -1.2375    0.0000 N   0  0  0  0  0  0  0  0  0  0  0  0
    2.1434   -0.4125    0.0000 C   0  0  0  0  0  0  0  0  0  0  0  0
    1.4289   -0.0000    0.0000 C   0  0  0  0  0  0  0  0  0  0  0  0
    0.7145   -0.4125    0.0000 C   0  0  0  0  0  0  0  0  0  0  0  0
    0.0000   -0.0000    0.0000 C   0  0  0  0  0  0  0  0  0  0  0  0
    0.0000    0.8250    0.0000 C   0  0  0  0  0  0  0  0  0  0  0  0
   -0.7145    1.2375    0.0000 O   0  0  0  0  0  0  0  0  0  0  0  0
    0.7145    1.2375    0.0000 C   0  0  0  0  0  0  0  0  0  0  0  0
    0.7145    2.0625    0.0000 O   0  0  0  0  0  0  0  0  0  0  0  0
    1.4289    0.8250    0.0000 C   0  0  0  0  0  0  0  0  0  0  0  0
    2.1434   -2.0625    0.0000 C   0  0  0  0  0  0  0  0  0  0  0  0
    2.8579   -2.4750    0.0000 O   0  0  0  0  0  0  0  0  0  0  0  0
    1.4289   -2.4750    0.0000 O   0  0  0  0  0  0  0  0  0  0  0  0
  2  1  1  1  0  0  0
  2  3  1  1  0  0  0
  2  4  1  0  0  0  0
  4  5  1  0  0  0  0
  5  6  4  0  0  0  0
  6  7  4  0  0  0  0
  7  8  4  0  0  0  0
  8  9  1  0  0  0  0
  8 10  4  0  0  0  0
 10 11  1  0  0  0  0
 10 12  4  0  0  0  0
  5 12  4  0  0  0  0
  2 13  1  0  0  0  0
 13 14  2  0  0  0  0
 13 15  1  0  0  0  0
M  END

> <ChembankId>
800

> <SMILES>
C[C@](N)(Cc1ccc(O)c(O)c1)C(=O)O

> <InChI>
1/C10H13NO4/c1-10(11,9(14)15)5-6-2-3-7(12)8(13)4-6/h2-4,12-13H,5,11H2,1H3,(H,14,15)

$$$$
801
  Marvin  11101114192D          

 21 23  0  0  0  0            999 V2000
    3.5724    4.5375    0.0000 C   0  0  0  0  0  0  0  0  0  0  0  0
    3.5724    3.7125    0.0000 N   0  0  0  0  0  0  0  0  0  0  0  0
    4.2868    3.3000    0.0000 C   0  0  0  0  0  0  0  0  0  0  0  0
    2.8579    3.3000    0.0000 C   0  0  0  0  0  0  0  0  0  0  0  0
    2.8579    2.4750    0.0000 C   0  0  0  0  0  0  0  0  0  0  0  0
    2.1434    2.0625    0.0000 C   0  0  0  0  0  0  0  0  0  0  0  0
    2.1434    1.2375    0.0000 C   0  0  0  0  0  0  0  0  0  0  0  0
    2.8579    0.8250    0.0000 C   0  0  0  0  0  0  0  0  0  0  0  0
    3.5724    1.2375    0.0000 C   0  0  0  0  0  0  0  0  0  0  0  0
    4.2868    0.8250    0.0000 C   0  0  0  0  0  0  0  0  0  0  0  0
    4.2868   -0.0000    0.0000 C   0  0  0  0  0  0  0  0  0  0  0  0
    3.5724   -0.4125    0.0000 C   0  0  0  0  0  0  0  0  0  0  0  0
    2.8579    0.0000    0.0000 C   0  0  0  0  0  0  0  0  0  0  0  0
    2.1434   -0.4125    0.0000 S   0  0  0  0  0  0  0  0  0  0  0  0
    1.4289    0.0000    0.0000 C   0  0  0  0  0  0  0  0  0  0  0  0
    0.7145   -0.4125    0.0000 C   0  0  0  0  0  0  0  0  0  0  0  0
    0.0000    0.0000    0.0000 C   0  0  0  0  0  0  0  0  0  0  0  0
    0.0000    0.8250    0.0000 C   0  0  0  0  0  0  0  0  0  0  0  0
   -0.7145    1.2375    0.0000 Cl  0  0  0  0  0  0  0  0  0  0  0  0
    0.7145    1.2375    0.0000 C   0  0  0  0  0  0  0  0  0  0  0  0
    1.4289    0.8250    0.0000 C   0  0  0  0  0  0  0  0  0  0  0  0
  1  2  1  0  0  0  0
  2  3  1  0  0  0  0
  2  4  1  0  0  0  0
  4  5  1  0  0  0  0
  5  6  1  0  0  0  0
  6  7  2  0  0  0  0
  7  8  1  0  0  0  0
  8  9  4  0  0  0  0
  9 10  4  0  0  0  0
 10 11  4  0  0  0  0
 11 12  4  0  0  0  0
 12 13  4  0  0  0  0
  8 13  4  0  0  0  0
 13 14  1  0  0  0  0
 14 15  1  0  0  0  0
 15 16  4  0  0  0  0
 16 17  4  0  0  0  0
 17 18  4  0  0  0  0
 18 19  1  0  0  0  0
 18 20  4  0  0  0  0
 20 21  4  0  0  0  0
  7 21  1  0  0  0  0
 15 21  4  0  0  0  0
M  END

> <ChembankId>
801

> <SMILES>
CN(C)CC/C=C/1\c2ccccc2Sc3ccc(Cl)cc13

> <InChI>
1/C18H18ClNS/c1-20(2)11-5-7-14-15-6-3-4-8-17(15)21-18-10-9-13(19)12-16(14)18/h3-4,6-10,12H,5,11H2,1-2H3

$$$$
803
  Marvin  11101114192D          

 11 11  0  0  0  0            999 V2000
   -0.7145   -1.2375    0.0000 C   0  0  0  0  0  0  0  0  0  0  0  0
   -0.7145   -0.4125    0.0000 C   0  0  0  0  0  0  0  0  0  0  0  0
   -0.0000    0.0000    0.0000 C   0  0  0  0  0  0  0  0  0  0  0  0
    0.0000    0.8250    0.0000 C   0  0  0  0  0  0  0  0  0  0  0  0
    0.7145    1.2375    0.0000 C   0  0  0  0  0  0  0  0  0  0  0  0
    1.4289    0.8250    0.0000 C   0  0  0  0  0  0  0  0  0  0  0  0
    1.4289   -0.0000    0.0000 C   0  0  0  0  0  0  0  0  0  0  0  0
    0.7145   -0.4125    0.0000 N   0  0  0  0  0  0  0  0  0  0  0  0
    0.7145    2.0625    0.0000 C   0  0  0  0  0  0  0  0  0  0  0  0
    0.0000    2.4750    0.0000 S   0  0  0  0  0  0  0  0  0  0  0  0
    1.4289    2.4750    0.0000 N   0  0  0  0  0  0  0  0  0  0  0  0
  1  2  1  0  0  0  0
  2  3  1  0  0  0  0
  3  4  4  0  0  0  0
  4  5  4  0  0  0  0
  5  6  4  0  0  0  0
  6  7  4  0  0  0  0
  7  8  4  0  0  0  0
  3  8  4  0  0  0  0
  5  9  1  0  0  0  0
  9 10  2  0  0  0  0
  9 11  1  0  0  0  0
M  END

> <ChembankId>
803

> <SMILES>
CCc1cc(ccn1)C(=S)N

> <InChI>
1/C8H10N2S/c1-2-7-5-6(8(9)11)3-4-10-7/h3-5H,2H2,1H3,(H2,9,11)

$$$$
804
  Marvin  11101114192D          

 23 24  0  0  0  0            999 V2000
    3.4990    1.1104    0.0000 C   0  0  0  0  0  0  0  0  0  0  0  0
    2.7845    0.6979    0.0000 O   0  0  0  0  0  0  0  0  0  0  0  0
    2.0701    1.1104    0.0000 C   0  0  0  0  0  0  0  0  0  0  0  0
    1.3556    0.6979    0.0000 C   0  0  0  0  0  0  0  0  0  0  0  0
    1.3556   -0.1271    0.0000 C   0  0  0  0  0  0  0  0  0  0  0  0
    0.6411    1.1104    0.0000 C   0  0  0  0  0  0  0  0  0  0  0  0
   -0.1435    0.8555    0.0000 C   0  0  0  0  0  0  0  0  0  0  0  0
   -0.6284    1.5229    0.0000 O   0  0  0  0  0  0  0  0  0  0  0  0
   -0.1435    2.1904    0.0000 C   0  0  0  0  0  0  0  0  0  0  0  0
   -0.3984    2.9750    0.0000 O   0  0  0  0  0  0  0  0  0  0  0  0
    0.6411    1.9354    0.0000 C   0  0  0  0  0  0  0  0  0  0  0  0
    1.3556    2.3479    0.0000 C   0  0  0  0  0  0  0  0  0  0  0  0
    1.3556    3.1729    0.0000 O   0  0  0  0  0  0  0  0  0  0  0  0
    2.0701    1.9354    0.0000 C   0  0  0  0  0  0  0  0  0  0  0  0
    2.7845    2.3479    0.0000 C   0  0  0  0  0  0  0  0  0  0  0  0
    2.7845    3.1729    0.0000 C   0  0  0  0  0  0  0  0  0  0  0  0
    3.4990    3.5854    0.0000 C   0  0  0  0  0  0  0  0  0  0  0  0
    4.2135    3.1729    0.0000 C   0  0  0  0  0  0  0  0  0  0  0  0
    3.4990    4.4104    0.0000 C   0  0  0  0  0  0  0  0  0  0  0  0
    2.7845    4.8229    0.0000 C   0  0  0  0  0  0  0  0  0  0  0  0
    2.7845    5.6479    0.0000 C   0  0  0  0  0  0  0  0  0  0  0  0
    2.0701    6.0604    0.0000 O   0  0  0  0  0  0  0  0  0  0  0  0
    3.4990    6.0604    0.0000 O   0  0  0  0  0  0  0  0  0  0  0  0
  1  2  1  0  0  0  0
  2  3  1  0  0  0  0
  3  4  4  0  0  0  0
  4  5  1  0  0  0  0
  4  6  4  0  0  0  0
  6  7  1  0  0  0  0
  7  8  1  0  0  0  0
  8  9  1  0  0  0  0
  9 10  2  0  0  0  0
  9 11  1  0  0  0  0
  6 11  4  0  0  0  0
 11 12  4  0  0  0  0
 12 13  1  0  0  0  0
 12 14  4  0  0  0  0
  3 14  4  0  0  0  0
 14 15  1  0  0  0  0
 15 16  1  0  0  0  0
 16 17  2  0  0  0  0
 17 18  1  0  0  0  0
 17 19  1  0  0  0  0
 19 20  1  0  0  0  0
 20 21  1  0  0  0  0
 21 22  2  0  0  0  0
 21 23  1  0  0  0  0
M  END

> <ChembankId>
804

> <SMILES>
COc1c(C)c2COC(=O)c2c(O)c1C/C=C(\C)/CCC(=O)O

> <InChI>
1/C17H20O6/c1-9(5-7-13(18)19)4-6-11-15(20)14-12(8-23-17(14)21)10(2)16(11)22-3/h4,20H,5-8H2,1-3H3,(H,18,19)

$$$$
805
  Marvin  11101114192D          

 21 23  0  0  0  0            999 V2000
   -0.0953   -3.7139    0.0000 C   0  0  0  0  0  0  0  0  0  0  0  0
    0.7117   -3.5424    0.0000 C   0  0  0  0  0  0  0  0  0  0  0  0
    0.9666   -2.7578    0.0000 C   0  0  0  0  0  0  0  0  0  0  0  0
    0.4146   -2.1447    0.0000 C   0  0  0  0  0  0  0  0  0  0  0  0
    0.6695   -1.3601    0.0000 C   0  0  0  0  0  0  0  0  0  0  0  0
    1.4765   -1.1885    0.0000 C   0  0  0  0  0  0  0  0  0  0  0  0
    2.0285   -1.8016    0.0000 C   0  0  0  0  0  0  0  0  0  0  0  0
    2.8535   -1.8016    0.0000 C   0  0  0  0  0  0  0  0  0  0  0  0
    3.4056   -1.1885    0.0000 C   0  0  0  0  0  0  0  0  0  0  0  0
    4.2125   -1.3601    0.0000 C   0  0  0  0  0  0  0  0  0  0  0  0
    4.4675   -2.1447    0.0000 O   0  0  0  0  0  0  0  0  0  0  0  0
    3.9154   -2.7578    0.0000 C   0  0  0  0  0  0  0  0  0  0  0  0
    4.6151   -3.1950    0.0000 C   0  0  0  0  0  0  0  0  0  0  0  0
    5.3435   -2.8076    0.0000 C   0  0  0  0  0  0  0  0  0  0  0  0
    3.6064   -3.5227    0.0000 C   0  0  0  0  0  0  0  0  0  0  0  0
    4.1143   -4.1728    0.0000 C   0  0  0  0  0  0  0  0  0  0  0  0
    4.9313   -4.0580    0.0000 O   0  0  0  0  0  0  0  0  0  0  0  0
    3.8053   -4.9377    0.0000 O   0  0  0  0  0  0  0  0  0  0  0  0
    3.1085   -2.5862    0.0000 C   0  0  0  0  0  0  0  0  0  0  0  0
    2.4410   -3.0712    0.0000 N   0  0  0  0  0  0  0  0  0  0  0  0
    1.7736   -2.5862    0.0000 C   0  0  0  0  0  0  0  0  0  0  0  0
  1  2  1  0  0  0  0
  2  3  1  0  0  0  0
  3  4  4  0  0  0  0
  4  5  4  0  0  0  0
  5  6  4  0  0  0  0
  6  7  4  0  0  0  0
  7  8  4  0  0  0  0
  8  9  1  0  0  0  0
  9 10  1  0  0  0  0
 10 11  1  0  0  0  0
 11 12  1  0  0  0  0
 12 13  1  0  0  0  0
 13 14  1  0  0  0  0
 12 15  1  0  0  0  0
 15 16  1  0  0  0  0
 16 17  2  0  0  0  0
 16 18  1  0  0  0  0
 12 19  1  0  0  0  0
  8 19  4  0  0  0  0
 19 20  4  0  0  0  0
 20 21  4  0  0  0  0
  3 21  4  0  0  0  0
  7 21  4  0  0  0  0
M  STY  1   1 DAT
M  SAL   1  1  20
M  SDT   1 MRV_IMPLICIT_H                                        
M  SDD   1     0.0000    0.0000    DR    ALL  0       0  
M  SED   1 IMPL_H1
M  END

> <ChembankId>
805

> <SMILES>
CCc1cccc2c3CCOC(CC)(CC(=O)O)c3[nH]c12

> <InChI>
1/C17H21NO3/c1-3-11-6-5-7-12-13-8-9-21-17(4-2,10-14(19)20)16(13)18-15(11)12/h5-7,18H,3-4,8-10H2,1-2H3,(H,19,20)

$$$$
807
  Marvin  11101114192D          

 18 19  0  0  0  0            999 V2000
    2.8579    0.8250    0.0000 C   0  0  0  0  0  0  0  0  0  0  0  0
    2.8579    0.0000    0.0000 C   0  0  0  0  0  0  0  0  0  0  0  0
    2.1434   -0.4125    0.0000 C   0  0  0  0  0  0  0  0  0  0  0  0
    2.1434   -1.2375    0.0000 C   0  0  0  0  0  0  0  0  0  0  0  0
    1.4289   -1.6500    0.0000 N   0  0  0  0  0  0  0  0  0  0  0  0
    1.4289   -2.4750    0.0000 C   0  0  0  0  0  0  0  0  0  0  0  0
    2.1434   -2.8875    0.0000 C   0  0  0  0  0  0  0  0  0  0  0  0
    2.1434   -3.7125    0.0000 C   0  0  0  0  0  0  0  0  0  0  0  0
    1.4289   -4.1250    0.0000 N   0  3  0  0  0  0  0  0  0  0  0  0
    1.4289   -4.9500    0.0000 C   0  0  0  0  0  0  0  0  0  0  0  0
    0.7145   -5.3625    0.0000 C   0  0  0  0  0  0  0  0  0  0  0  0
    0.0000   -4.9500    0.0000 C   0  0  0  0  0  0  0  0  0  0  0  0
    0.0000   -4.1250    0.0000 C   0  0  0  0  0  0  0  0  0  0  0  0
    0.7145   -3.7125    0.0000 C   0  0  0  0  0  0  0  0  0  0  0  0
    0.7145   -2.8875    0.0000 C   0  0  0  0  0  0  0  0  0  0  0  0
    2.8579   -2.4750    0.0000 C   0  0  0  0  0  0  0  0  0  0  0  0
    3.5724   -2.8875    0.0000 N   0  0  0  0  0  0  0  0  0  0  0  0
    2.8579   -1.6500    0.0000 N   0  0  0  0  0  0  0  0  0  0  0  0
  1  2  1  0  0  0  0
  2  3  1  0  0  0  0
  3  4  1  0  0  0  0
  4  5  4  0  0  0  0
  5  6  4  0  0  0  0
  6  7  4  0  0  0  0
  7  8  1  0  0  0  0
  8  9  1  0  0  0  0
  9 10  4  0  0  0  0
 10 11  4  0  0  0  0
 11 12  4  0  0  0  0
 12 13  4  0  0  0  0
 13 14  4  0  0  0  0
  9 14  4  0  0  0  0
 14 15  1  0  0  0  0
  7 16  4  0  0  0  0
 16 17  1  0  0  0  0
 16 18  4  0  0  0  0
  4 18  4  0  0  0  0
M  CHG  1   9   1
M  END

> <ChembankId>
807

> <SMILES>
CCCc1ncc(C[n+]2ccccc2C)c(N)n1

> <InChI>
1/C14H19N4/c1-3-6-13-16-9-12(14(15)17-13)10-18-8-5-4-7-11(18)2/h4-5,7-9H,3,6,10H2,1-2H3,(H2,15,16,17)/q+1

$$$$
809
  Marvin  11101114192D          

 20 22  0  0  0  0            999 V2000
    2.3747    3.6320    0.0000 C   0  0  0  0  0  0  0  0  0  0  0  0
    2.3747    2.8070    0.0000 N   0  0  0  0  0  0  0  0  0  0  0  0
    3.0892    2.3945    0.0000 C   0  0  0  0  0  0  0  0  0  0  0  0
    3.0892    1.5695    0.0000 C   0  0  0  0  0  0  0  0  0  0  0  0
    3.8037    1.1570    0.0000 C   0  0  0  0  0  0  0  0  0  0  0  0
    3.8037    0.3320    0.0000 C   0  0  0  0  0  0  0  0  0  0  0  0
    4.5470   -0.0260    0.0000 C   0  0  0  0  0  0  0  0  0  0  0  0
    5.1517    0.5352    0.0000 C   0  0  0  0  0  0  0  0  0  0  0  0
    5.9401    0.2920    0.0000 C   0  0  0  0  0  0  0  0  0  0  0  0
    6.1237   -0.5123    0.0000 C   0  0  0  0  0  0  0  0  0  0  0  0
    5.5189   -1.0735    0.0000 C   0  0  0  0  0  0  0  0  0  0  0  0
    4.7305   -0.8303    0.0000 C   0  0  0  0  0  0  0  0  0  0  0  0
    4.2162   -1.4753    0.0000 C   0  0  0  0  0  0  0  0  0  0  0  0
    3.3912   -1.4753    0.0000 C   0  0  0  0  0  0  0  0  0  0  0  0
    2.8768   -0.8303    0.0000 C   0  0  0  0  0  0  0  0  0  0  0  0
    2.0884   -1.0735    0.0000 C   0  0  0  0  0  0  0  0  0  0  0  0
    1.4837   -0.5123    0.0000 C   0  0  0  0  0  0  0  0  0  0  0  0
    1.6673    0.2920    0.0000 C   0  0  0  0  0  0  0  0  0  0  0  0
    2.4556    0.5352    0.0000 C   0  0  0  0  0  0  0  0  0  0  0  0
    3.0604   -0.0260    0.0000 C   0  0  0  0  0  0  0  0  0  0  0  0
  1  2  1  0  0  0  0
  2  3  1  0  0  0  0
  3  4  1  0  0  0  0
  4  5  1  0  0  0  0
  5  6  2  0  0  0  0
  6  7  1  0  0  0  0
  7  8  4  0  0  0  0
  8  9  4  0  0  0  0
  9 10  4  0  0  0  0
 10 11  4  0  0  0  0
 11 12  4  0  0  0  0
  7 12  4  0  0  0  0
 12 13  1  0  0  0  0
 13 14  1  0  0  0  0
 14 15  1  0  0  0  0
 15 16  4  0  0  0  0
 16 17  4  0  0  0  0
 17 18  4  0  0  0  0
 18 19  4  0  0  0  0
 19 20  4  0  0  0  0
  6 20  1  0  0  0  0
 15 20  4  0  0  0  0
M  END

> <ChembankId>
809

> <SMILES>
CNCCC=C1c2ccccc2CCc3ccccc13

> <InChI>
1/C19H21N/c1-20-14-6-11-19-17-9-4-2-7-15(17)12-13-16-8-3-5-10-18(16)19/h2-5,7-11,20H,6,12-14H2,1H3

$$$$
810
  Marvin  11101114192D          

 38 39  0  0  1  0            999 V2000
   -1.8880    2.6756    0.0000 C   0  0  0  0  0  0  0  0  0  0  0  0
   -1.3577    2.0436    0.0000 C   0  0  0  0  0  0  0  0  0  0  0  0
   -1.6399    1.2683    0.0000 C   0  0  0  0  0  0  0  0  0  0  0  0
   -1.1096    0.6363    0.0000 C   0  0  0  0  0  0  0  0  0  0  0  0
   -1.3917   -0.1389    0.0000 C   0  0  0  0  0  0  0  0  0  0  0  0
   -2.2042   -0.2822    0.0000 C   0  0  2  0  0  0  0  0  0  0  0  0
   -2.3474   -1.0946    0.0000 C   0  0  1  0  0  0  0  0  0  0  0  0
   -1.6330   -1.5071    0.0000 O   0  0  0  0  0  0  0  0  0  0  0  0
   -0.9185   -1.0946    0.0000 C   0  0  0  0  0  0  0  0  0  0  0  0
   -0.9185   -0.2696    0.0000 O   0  0  0  0  0  0  0  0  0  0  0  0
   -0.2040   -1.5071    0.0000 C   0  0  0  0  0  0  0  0  0  0  0  0
    0.5104   -1.0946    0.0000 C   0  0  0  0  0  0  0  0  0  0  0  0
    0.5104   -0.2696    0.0000 C   0  0  0  0  0  0  0  0  0  0  0  0
    1.2249   -1.5071    0.0000 C   0  0  0  0  0  0  0  0  0  0  0  0
   -2.9794   -1.6249    0.0000 C   0  0  2  0  0  0  0  0  0  0  0  0
   -2.6973   -2.4002    0.0000 C   0  0  0  0  0  0  0  0  0  0  0  0
   -3.8044   -1.6249    0.0000 O   0  0  0  0  0  0  0  0  0  0  0  0
   -4.4364   -1.0946    0.0000 C   0  0  0  0  0  0  0  0  0  0  0  0
   -5.1509   -1.5071    0.0000 O   0  0  0  0  0  0  0  0  0  0  0  0
   -4.5797   -0.2822    0.0000 C   0  0  1  0  0  0  0  0  0  0  0  0
   -5.3921   -0.1389    0.0000 N   0  0  0  0  0  0  0  0  0  0  0  0
   -5.6743    0.6363    0.0000 C   0  0  0  0  0  0  0  0  0  0  0  0
   -5.1440    1.2683    0.0000 O   0  0  0  0  0  0  0  0  0  0  0  0
   -6.4868    0.7796    0.0000 C   0  0  0  0  0  0  0  0  0  0  0  0
   -7.0171    0.1476    0.0000 C   0  0  0  0  0  0  0  0  0  0  0  0
   -7.8295    0.2909    0.0000 C   0  0  0  0  0  0  0  0  0  0  0  0
   -8.1117    1.0661    0.0000 C   0  0  0  0  0  0  0  0  0  0  0  0
   -7.5814    1.6981    0.0000 C   0  0  0  0  0  0  0  0  0  0  0  0
   -7.8636    2.4734    0.0000 N   0  0  0  0  0  0  0  0  0  0  0  0
   -7.3333    3.1053    0.0000 C   0  0  0  0  0  0  0  0  0  0  0  0
   -7.6154    3.8806    0.0000 O   0  0  0  0  0  0  0  0  0  0  0  0
   -6.7689    1.5548    0.0000 C   0  0  0  0  0  0  0  0  0  0  0  0
   -6.2386    2.1868    0.0000 O   0  0  0  0  0  0  0  0  0  0  0  0
   -4.1672    0.4323    0.0000 C   0  0  1  0  0  0  0  0  0  0  0  0
   -4.6975    1.0643    0.0000 C   0  0  0  0  0  0  0  0  0  0  0  0
   -3.3919    0.7145    0.0000 O   0  0  0  0  0  0  0  0  0  0  0  0
   -2.6167    0.4323    0.0000 C   0  0  0  0  0  0  0  0  0  0  0  0
   -2.0864    1.0643    0.0000 O   0  0  0  0  0  0  0  0  0  0  0  0
  1  2  1  0  0  0  0
  2  3  1  0  0  0  0
  3  4  1  0  0  0  0
  4  5  1  0  0  0  0
  6  5  1  6  0  0  0
  6  7  1  0  0  0  0
  7  8  1  1  0  0  0
  8  9  1  0  0  0  0
  9 10  2  0  0  0  0
  9 11  1  0  0  0  0
 11 12  1  0  0  0  0
 12 13  1  0  0  0  0
 12 14  1  0  0  0  0
  7 15  1  0  0  0  0
 15 16  1  6  0  0  0
 15 17  1  0  0  0  0
 17 18  1  0  0  0  0
 18 19  2  0  0  0  0
 18 20  1  0  0  0  0
 20 21  1  1  0  0  0
 21 22  1  0  0  0  0
 22 23  2  0  0  0  0
 22 24  1  0  0  0  0
 24 25  4  0  0  0  0
 25 26  4  0  0  0  0
 26 27  4  0  0  0  0
 27 28  4  0  0  0  0
 28 29  1  0  0  0  0
 29 30  1  0  0  0  0
 30 31  2  0  0  0  0
 28 32  4  0  0  0  0
 24 32  4  0  0  0  0
 32 33  1  0  0  0  0
 20 34  1  0  0  0  0
 34 35  1  1  0  0  0
 34 36  1  0  0  0  0
 36 37  1  0  0  0  0
  6 37  1  0  0  0  0
 37 38  2  0  0  0  0
M  END

> <ChembankId>
810

> <SMILES>
CCCCC[C@@H]1[C@@H](OC(=O)CC(C)C)[C@H](C)OC(=O)[C@@H](NC(=O)c2cccc(NC=O)c2O)[C@@H](C)OC1=O

> <InChI>
1/C27H38N2O9/c1-6-7-8-10-19-24(38-21(31)13-15(2)3)17(5)37-27(35)22(16(4)36-26(19)34)29-25(33)18-11-9-12-20(23(18)32)28-14-30/h9,11-12,14-17,19,22,24,32H,6-8,10,13H2,1-5H3,(H,28,30)(H,29,33)

$$$$
811
  Marvin  11101114192D          

 23 26  0  0  1  0            999 V2000
    1.7447   -3.0280    0.0000 C   0  0  0  0  0  0  0  0  0  0  0  0
    2.5619   -3.1408    0.0000 C   0  0  0  0  0  0  0  0  0  0  0  0
    2.8728   -3.9050    0.0000 O   0  0  0  0  0  0  0  0  0  0  0  0
    3.0683   -2.4895    0.0000 C   0  0  1  0  0  0  0  0  0  0  0  0
    2.8390   -1.6970    0.0000 C   0  0  0  0  0  0  0  0  0  0  0  0
    3.5218   -1.2340    0.0000 C   0  0  0  0  0  0  0  0  0  0  0  0
    4.1731   -1.7404    0.0000 C   0  0  0  0  0  0  0  0  0  0  0  0
    4.9853   -1.5952    0.0000 C   0  0  0  0  0  0  0  0  0  0  0  0
    5.2655   -0.8192    0.0000 C   0  0  0  0  0  0  0  0  0  0  0  0
    6.0777   -0.6740    0.0000 C   0  0  0  0  0  0  0  0  0  0  0  0
    6.6095   -1.3047    0.0000 C   0  0  0  0  0  0  0  0  0  0  0  0
    7.4216   -1.1595    0.0000 C   0  0  0  0  0  0  0  0  0  0  0  0
    7.9534   -1.7902    0.0000 C   0  0  1  0  0  0  0  0  0  0  0  0
    8.7655   -1.6450    0.0000 O   0  0  0  0  0  0  0  0  0  0  0  0
    7.6731   -2.5662    0.0000 C   0  0  0  0  0  0  0  0  0  0  0  0
    6.8610   -2.7114    0.0000 C   0  0  0  0  0  0  0  0  0  0  0  0
    6.3292   -2.0807    0.0000 C   0  0  1  0  0  0  0  0  0  0  0  0
    6.0489   -2.8566    0.0000 C   0  0  0  0  0  0  0  0  0  0  0  0
    5.5171   -2.2259    0.0000 C   0  0  0  0  0  0  0  0  0  0  0  0
    5.2368   -3.0018    0.0000 C   0  0  0  0  0  0  0  0  0  0  0  0
    4.4247   -3.1470    0.0000 C   0  0  0  0  0  0  0  0  0  0  0  0
    3.8928   -2.5163    0.0000 C   0  0  2  0  0  0  0  0  0  0  0  0
    3.5330   -3.2587    0.0000 C   0  0  0  0  0  0  0  0  0  0  0  0
  1  2  1  0  0  0  0
  2  3  2  0  0  0  0
  4  2  1  1  0  0  0
  4  5  1  0  0  0  0
  5  6  1  0  0  0  0
  6  7  1  0  0  0  0
  7  8  1  0  0  0  0
  8  9  1  0  0  0  0
  9 10  1  0  0  0  0
 10 11  2  0  0  0  0
 11 12  1  0  0  0  0
 12 13  1  0  0  0  0
 13 14  1  1  0  0  0
 13 15  1  0  0  0  0
 15 16  1  0  0  0  0
 16 17  1  0  0  0  0
 11 17  1  0  0  0  0
 17 18  1  1  0  0  0
 17 19  1  0  0  0  0
  8 19  1  0  0  0  0
 19 20  1  0  0  0  0
 20 21  1  0  0  0  0
 21 22  1  0  0  0  0
  4 22  1  0  0  0  0
  7 22  1  0  0  0  0
 22 23  1  1  0  0  0
M  END

> <ChembankId>
811

> <SMILES>
CC(=O)[C@H]1CCC2C3CC=C4C[C@@H](O)CC[C@]4(C)C3CC[C@]12C

> <InChI>
1/C21H32O2/c1-13(22)17-6-7-18-16-5-4-14-12-15(23)8-10-20(14,2)19(16)9-11-21(17,18)3/h4,15-19,23H,5-12H2,1-3H3

$$$$
812
  Marvin  11101114192D          

 24 26  0  0  1  0            999 V2000
    3.1110    2.5559    0.0000 C   0  0  0  0  0  0  0  0  0  0  0  0
    2.6985    1.8414    0.0000 O   0  0  0  0  0  0  0  0  0  0  0  0
    3.1110    1.1270    0.0000 C   0  0  0  0  0  0  0  0  0  0  0  0
    3.9360    1.1270    0.0000 C   0  0  0  0  0  0  0  0  0  0  0  0
    4.3485    0.4125    0.0000 C   0  0  0  0  0  0  0  0  0  0  0  0
    5.1735    0.4125    0.0000 O   0  0  0  0  0  0  0  0  0  0  0  0
    3.9360   -0.3020    0.0000 C   0  0  0  0  0  0  0  0  0  0  0  0
    3.1110   -0.3020    0.0000 C   0  0  1  0  0  0  0  0  0  0  0  0
    2.6985   -1.0164    0.0000 C   0  0  0  0  0  0  0  0  0  0  0  0
    2.6985    0.4125    0.0000 C   0  0  2  0  0  0  0  0  0  0  0  0
    2.2136    1.0799    0.0000 O   0  0  0  0  0  0  0  0  0  0  0  0
    1.4289    0.8250    0.0000 C   0  0  0  0  0  0  0  0  0  0  0  0
    1.4289    0.0000    0.0000 C   0  0  0  0  0  0  0  0  0  0  0  0
    2.2136   -0.2549    0.0000 C   0  0  0  0  0  0  0  0  0  0  0  0
    2.2136   -1.0799    0.0000 O   0  0  0  0  0  0  0  0  0  0  0  0
    0.7145   -0.4125    0.0000 C   0  0  0  0  0  0  0  0  0  0  0  0
    0.7145   -1.2375    0.0000 O   0  0  0  0  0  0  0  0  0  0  0  0
    0.0000   -1.6500    0.0000 C   0  0  0  0  0  0  0  0  0  0  0  0
    0.0000   -0.0000    0.0000 C   0  0  0  0  0  0  0  0  0  0  0  0
    0.0000    0.8250    0.0000 C   0  0  0  0  0  0  0  0  0  0  0  0
   -0.7145    1.2375    0.0000 O   0  0  0  0  0  0  0  0  0  0  0  0
   -1.4289    0.8250    0.0000 C   0  0  0  0  0  0  0  0  0  0  0  0
    0.7145    1.2375    0.0000 C   0  0  0  0  0  0  0  0  0  0  0  0
    0.7145    2.0625    0.0000 Cl  0  0  0  0  0  0  0  0  0  0  0  0
  1  2  1  0  0  0  0
  2  3  1  0  0  0  0
  3  4  2  0  0  0  0
  4  5  1  0  0  0  0
  5  6  2  0  0  0  0
  5  7  1  0  0  0  0
  7  8  1  0  0  0  0
  8  9  1  1  0  0  0
  8 10  1  0  0  0  0
  3 10  1  0  0  0  0
 10 11  1  6  0  0  0
 11 12  1  0  0  0  0
 12 13  4  0  0  0  0
 13 14  1  0  0  0  0
 10 14  1  0  0  0  0
 14 15  2  0  0  0  0
 13 16  4  0  0  0  0
 16 17  1  0  0  0  0
 17 18  1  0  0  0  0
 16 19  4  0  0  0  0
 19 20  4  0  0  0  0
 20 21  1  0  0  0  0
 21 22  1  0  0  0  0
 20 23  4  0  0  0  0
 12 23  4  0  0  0  0
 23 24  1  0  0  0  0
M  END

> <ChembankId>
812

> <SMILES>
COC1=CC(=O)C[C@@H](C)[C@@]21Oc3c(C2=O)c(OC)cc(OC)c3Cl

> <InChI>
1/C17H17ClO6/c1-8-5-9(19)6-12(23-4)17(8)16(20)13-10(21-2)7-11(22-3)14(18)15(13)24-17/h6-8H,5H2,1-4H3

$$$$
814
  Marvin  11101114192D          

 25 27  0  0  0  0            999 V2000
   -1.4289    0.8250    0.0000 Cl  0  0  0  0  0  0  0  0  0  0  0  0
   -0.7145    0.4125    0.0000 C   0  0  0  0  0  0  0  0  0  0  0  0
    0.0000    0.8250    0.0000 C   0  0  0  0  0  0  0  0  0  0  0  0
    0.7145    0.4125    0.0000 C   0  0  0  0  0  0  0  0  0  0  0  0
    0.7145   -0.4125    0.0000 C   0  0  0  0  0  0  0  0  0  0  0  0
    1.4289   -0.8250    0.0000 C   0  0  0  0  0  0  0  0  0  0  0  0
    1.4289   -1.6500    0.0000 O   0  0  0  0  0  0  0  0  0  0  0  0
    2.1434   -2.0625    0.0000 C   0  0  0  0  0  0  0  0  0  0  0  0
    2.8579   -1.6500    0.0000 C   0  0  0  0  0  0  0  0  0  0  0  0
    3.5724   -2.0625    0.0000 N   0  0  0  0  0  0  0  0  0  0  0  0
    4.3260   -1.7269    0.0000 C   0  0  0  0  0  0  0  0  0  0  0  0
    4.8781   -2.3400    0.0000 C   0  0  0  0  0  0  0  0  0  0  0  0
    4.4656   -3.0545    0.0000 N   0  0  0  0  0  0  0  0  0  0  0  0
    3.6586   -2.8830    0.0000 C   0  0  0  0  0  0  0  0  0  0  0  0
    2.1434   -2.8875    0.0000 C   0  0  0  0  0  0  0  0  0  0  0  0
    2.8579   -3.3000    0.0000 C   0  0  0  0  0  0  0  0  0  0  0  0
    2.8579   -4.1250    0.0000 C   0  0  0  0  0  0  0  0  0  0  0  0
    2.1434   -4.5375    0.0000 C   0  0  0  0  0  0  0  0  0  0  0  0
    2.1434   -5.3625    0.0000 Cl  0  0  0  0  0  0  0  0  0  0  0  0
    1.4289   -4.1250    0.0000 C   0  0  0  0  0  0  0  0  0  0  0  0
    1.4289   -3.3000    0.0000 C   0  0  0  0  0  0  0  0  0  0  0  0
    0.7145   -2.8875    0.0000 Cl  0  0  0  0  0  0  0  0  0  0  0  0
    0.0000   -0.8250    0.0000 C   0  0  0  0  0  0  0  0  0  0  0  0
    0.0000   -1.6500    0.0000 Cl  0  0  0  0  0  0  0  0  0  0  0  0
   -0.7145   -0.4125    0.0000 C   0  0  0  0  0  0  0  0  0  0  0  0
  1  2  1  0  0  0  0
  2  3  4  0  0  0  0
  3  4  4  0  0  0  0
  4  5  4  0  0  0  0
  5  6  1  0  0  0  0
  6  7  1  0  0  0  0
  7  8  1  0  0  0  0
  8  9  1  0  0  0  0
  9 10  1  0  0  0  0
 10 11  4  0  0  0  0
 11 12  4  0  0  0  0
 12 13  4  0  0  0  0
 13 14  4  0  0  0  0
 10 14  4  0  0  0  0
  8 15  1  0  0  0  0
 15 16  4  0  0  0  0
 16 17  4  0  0  0  0
 17 18  4  0  0  0  0
 18 19  1  0  0  0  0
 18 20  4  0  0  0  0
 20 21  4  0  0  0  0
 15 21  4  0  0  0  0
 21 22  1  0  0  0  0
  5 23  4  0  0  0  0
 23 24  1  0  0  0  0
 23 25  4  0  0  0  0
  2 25  4  0  0  0  0
M  END

> <ChembankId>
814

> <SMILES>
Clc1ccc(COC(Cn2ccnc2)c3ccc(Cl)cc3Cl)c(Cl)c1

> <InChI>
1/C18H14Cl4N2O/c19-13-2-1-12(16(21)7-13)10-25-18(9-24-6-5-23-11-24)15-4-3-14(20)8-17(15)22/h1-8,11,18H,9-10H2

$$$$
816
  Marvin  11101114192D          

 18 19  0  0  0  0            999 V2000
    3.4656    3.5277    0.0000 C   0  0  0  0  0  0  0  0  0  0  0  0
    4.1801    3.1152    0.0000 C   0  0  0  0  0  0  0  0  0  0  0  0
    4.8946    3.5277    0.0000 C   0  0  0  0  0  0  0  0  0  0  0  0
    5.6091    3.1152    0.0000 C   0  0  0  0  0  0  0  0  0  0  0  0
    5.6091    2.2902    0.0000 C   0  0  0  0  0  0  0  0  0  0  0  0
    4.8946    1.8777    0.0000 C   0  0  0  0  0  0  0  0  0  0  0  0
    4.8946    1.0527    0.0000 C   0  0  0  0  0  0  0  0  0  0  0  0
    4.1801    2.2902    0.0000 C   0  0  0  0  0  0  0  0  0  0  0  0
    3.4656    1.8777    0.0000 C   0  0  0  0  0  0  0  0  0  0  0  0
    3.4656    1.0527    0.0000 C   0  0  0  0  0  0  0  0  0  0  0  0
    4.1331    0.5678    0.0000 N   0  0  0  0  0  0  0  0  0  0  0  0
    3.8781   -0.2169    0.0000 C   0  0  0  0  0  0  0  0  0  0  0  0
    3.0531   -0.2169    0.0000 C   0  0  0  0  0  0  0  0  0  0  0  0
    2.7982    0.5678    0.0000 N   0  0  0  0  0  0  0  0  0  0  0  0
    6.3235    3.5277    0.0000 C   0  0  0  0  0  0  0  0  0  0  0  0
    7.0380    3.9402    0.0000 C   0  0  0  0  0  0  0  0  0  0  0  0
    6.7360    2.8132    0.0000 C   0  0  0  0  0  0  0  0  0  0  0  0
    5.9110    4.2422    0.0000 C   0  0  0  0  0  0  0  0  0  0  0  0
  1  2  1  0  0  0  0
  2  3  4  0  0  0  0
  3  4  4  0  0  0  0
  4  5  4  0  0  0  0
  5  6  4  0  0  0  0
  6  7  1  0  0  0  0
  6  8  4  0  0  0  0
  2  8  4  0  0  0  0
  8  9  1  0  0  0  0
  9 10  1  0  0  0  0
 10 11  2  0  0  0  0
 11 12  1  0  0  0  0
 12 13  1  0  0  0  0
 13 14  1  0  0  0  0
 10 14  1  0  0  0  0
  4 15  1  0  0  0  0
 15 16  1  0  0  0  0
 15 17  1  0  0  0  0
 15 18  1  0  0  0  0
M  END

> <ChembankId>
816

> <SMILES>
Cc1cc(cc(C)c1CC2=NCCN2)C(C)(C)C

> <InChI>
1/C16H24N2/c1-11-8-13(16(3,4)5)9-12(2)14(11)10-15-17-6-7-18-15/h8-9H,6-7,10H2,1-5H3,(H,17,18)

$$$$
818
  Marvin  11101114192D          

 12 12  0  0  0  0            999 V2000
    2.0572    1.7262    0.0000 C   0  0  0  0  0  0  0  0  0  0  0  0
    1.2448    1.8695    0.0000 C   0  0  0  0  0  0  0  0  0  0  0  0
    0.7145    1.2375    0.0000 C   0  0  0  0  0  0  0  0  0  0  0  0
    0.1842    1.8695    0.0000 C   0  0  0  0  0  0  0  0  0  0  0  0
   -0.6283    1.7262    0.0000 C   0  0  0  0  0  0  0  0  0  0  0  0
    1.4289    0.8250    0.0000 C   0  0  0  0  0  0  0  0  0  0  0  0
    2.1434    1.2375    0.0000 O   0  0  0  0  0  0  0  0  0  0  0  0
    1.4289    0.0000    0.0000 N   0  0  0  0  0  0  0  0  0  0  0  0
    0.7145   -0.4125    0.0000 C   0  0  0  0  0  0  0  0  0  0  0  0
    0.0000   -0.0000    0.0000 C   0  0  0  0  0  0  0  0  0  0  0  0
   -0.0000    0.8250    0.0000 C   0  0  0  0  0  0  0  0  0  0  0  0
   -0.7145    1.2375    0.0000 O   0  0  0  0  0  0  0  0  0  0  0  0
  1  2  1  0  0  0  0
  2  3  1  0  0  0  0
  3  4  1  0  0  0  0
  4  5  1  0  0  0  0
  3  6  1  0  0  0  0
  6  7  2  0  0  0  0
  6  8  1  0  0  0  0
  8  9  1  0  0  0  0
  9 10  2  0  0  0  0
 10 11  1  0  0  0  0
  3 11  1  0  0  0  0
 11 12  2  0  0  0  0
M  END

> <ChembankId>
818

> <SMILES>
CCC1(CC)C(=O)NC=CC1=O

> <InChI>
1/C9H13NO2/c1-3-9(4-2)7(11)5-6-10-8(9)12/h5-6H,3-4H2,1-2H3,(H,10,12)

$$$$
819
  Marvin  11101114192D          

 22 23  0  0  0  0            999 V2000
   -4.2125   -2.0717    0.0000 C   0  0  0  0  0  0  0  0  0  0  0  0
   -3.4980   -2.4842    0.0000 C   0  0  0  0  0  0  0  0  0  0  0  0
   -2.7835   -2.0717    0.0000 N   0  0  0  0  0  0  0  0  0  0  0  0
   -2.7835   -1.2467    0.0000 C   0  0  0  0  0  0  0  0  0  0  0  0
   -2.0691   -0.8342    0.0000 C   0  0  0  0  0  0  0  0  0  0  0  0
   -2.0691   -2.4842    0.0000 C   0  0  0  0  0  0  0  0  0  0  0  0
   -1.3546   -2.0717    0.0000 C   0  0  0  0  0  0  0  0  0  0  0  0
   -0.6401   -2.4842    0.0000 O   0  0  0  0  0  0  0  0  0  0  0  0
    0.0744   -2.0717    0.0000 C   0  0  0  0  0  0  0  0  0  0  0  0
    0.0744   -1.2467    0.0000 O   0  0  0  0  0  0  0  0  0  0  0  0
    0.7888   -2.4842    0.0000 C   0  0  0  0  0  0  0  0  0  0  0  0
    1.6013   -2.6275    0.0000 C   0  0  0  0  0  0  0  0  0  0  0  0
    1.8835   -3.4027    0.0000 C   0  0  0  0  0  0  0  0  0  0  0  0
    1.3532   -4.0347    0.0000 C   0  0  0  0  0  0  0  0  0  0  0  0
    0.5407   -3.8914    0.0000 C   0  0  0  0  0  0  0  0  0  0  0  0
    0.2585   -3.1162    0.0000 C   0  0  0  0  0  0  0  0  0  0  0  0
    1.0710   -1.7089    0.0000 C   0  0  0  0  0  0  0  0  0  0  0  0
    0.5407   -1.0770    0.0000 C   0  0  0  0  0  0  0  0  0  0  0  0
    0.8229   -0.3017    0.0000 C   0  0  0  0  0  0  0  0  0  0  0  0
    1.6353   -0.1585    0.0000 C   0  0  0  0  0  0  0  0  0  0  0  0
    2.1656   -0.7904    0.0000 C   0  0  0  0  0  0  0  0  0  0  0  0
    1.8835   -1.5657    0.0000 C   0  0  0  0  0  0  0  0  0  0  0  0
  1  2  1  0  0  0  0
  2  3  1  0  0  0  0
  3  4  1  0  0  0  0
  4  5  1  0  0  0  0
  3  6  1  0  0  0  0
  6  7  1  0  0  0  0
  7  8  1  0  0  0  0
  8  9  1  0  0  0  0
  9 10  2  0  0  0  0
  9 11  1  0  0  0  0
 11 12  1  0  0  0  0
 12 13  1  0  0  0  0
 13 14  1  0  0  0  0
 14 15  1  0  0  0  0
 15 16  1  0  0  0  0
 11 16  1  0  0  0  0
 11 17  1  0  0  0  0
 17 18  1  0  0  0  0
 18 19  1  0  0  0  0
 19 20  1  0  0  0  0
 20 21  1  0  0  0  0
 21 22  1  0  0  0  0
 17 22  1  0  0  0  0
M  END

> <ChembankId>
819

> <SMILES>
CCN(CC)CCOC(=O)C1(CCCCC1)C2CCCCC2

> <InChI>
1/C19H35NO2/c1-3-20(4-2)15-16-22-18(21)19(13-9-6-10-14-19)17-11-7-5-8-12-17/h17H,3-16H2,1-2H3

$$$$
822
  Marvin  11101114192D          

 16 16  0  0  0  0            999 V2000
    2.8579   -2.4750    0.0000 C   0  0  0  0  0  0  0  0  0  0  0  0
    2.8579   -1.6500    0.0000 N   0  0  0  0  0  0  0  0  0  0  0  0
    3.5724   -1.2375    0.0000 C   0  0  0  0  0  0  0  0  0  0  0  0
    2.1434   -1.2375    0.0000 C   0  0  0  0  0  0  0  0  0  0  0  0
    1.4289   -1.6500    0.0000 O   0  0  0  0  0  0  0  0  0  0  0  0
    2.1434   -0.4125    0.0000 O   0  0  0  0  0  0  0  0  0  0  0  0
    1.4289   -0.0000    0.0000 C   0  0  0  0  0  0  0  0  0  0  0  0
    0.7145   -0.4125    0.0000 C   0  0  0  0  0  0  0  0  0  0  0  0
    0.0000   -0.0000    0.0000 C   0  0  0  0  0  0  0  0  0  0  0  0
    0.0000    0.8250    0.0000 C   0  0  0  0  0  0  0  0  0  0  0  0
    0.7145    1.2375    0.0000 C   0  0  0  0  0  0  0  0  0  0  0  0
    1.4289    0.8250    0.0000 C   0  0  0  0  0  0  0  0  0  0  0  0
    0.7145    2.0625    0.0000 N   0  3  0  0  0  0  0  0  0  0  0  0
    0.7145    2.8875    0.0000 C   0  0  0  0  0  0  0  0  0  0  0  0
    1.5395    2.0625    0.0000 C   0  0  0  0  0  0  0  0  0  0  0  0
   -0.1105    2.0625    0.0000 C   0  0  0  0  0  0  0  0  0  0  0  0
  1  2  1  0  0  0  0
  2  3  1  0  0  0  0
  2  4  1  0  0  0  0
  4  5  2  0  0  0  0
  4  6  1  0  0  0  0
  6  7  1  0  0  0  0
  7  8  4  0  0  0  0
  8  9  4  0  0  0  0
  9 10  4  0  0  0  0
 10 11  4  0  0  0  0
 11 12  4  0  0  0  0
  7 12  4  0  0  0  0
 11 13  1  0  0  0  0
 13 14  1  0  0  0  0
 13 15  1  0  0  0  0
 13 16  1  0  0  0  0
M  CHG  1  13   1
M  END

> <ChembankId>
822

> <SMILES>
CN(C)C(=O)Oc1cccc(c1)[N+](C)(C)C

> <InChI>
1/C12H19N2O2/c1-13(2)12(15)16-11-8-6-7-10(9-11)14(3,4)5/h6-9H,1-5H3/q+1

$$$$
824
  Marvin  11101114192D          

 26 30  0  0  1  0            999 V2000
   -0.7420   -2.2988    0.0000 C   0  0  0  0  0  0  0  0  0  0  0  0
    0.0817   -2.2516    0.0000 C   0  0  0  0  0  0  0  0  0  0  0  0
    0.4527   -1.5147    0.0000 C   0  0  1  0  0  0  0  0  0  0  0  0
   -0.3710   -1.5619    0.0000 C   0  0  0  0  0  0  0  0  0  0  0  0
   -0.8237   -0.8721    0.0000 C   0  0  0  0  0  0  0  0  0  0  0  0
   -0.4527   -0.1353    0.0000 C   0  0  0  0  0  0  0  0  0  0  0  0
    0.3710   -0.0881    0.0000 N   0  0  0  0  0  0  0  0  0  0  0  0
    0.7420    0.6488    0.0000 C   0  0  0  0  0  0  0  0  0  0  0  0
    1.5656    0.6959    0.0000 C   0  0  0  0  0  0  0  0  0  0  0  0
    2.0183    0.0062    0.0000 C   0  0  0  0  0  0  0  0  0  0  0  0
    1.6473   -0.7307    0.0000 C   0  0  0  0  0  0  0  0  0  0  0  0
    0.8237   -0.7779    0.0000 C   0  0  2  0  0  0  0  0  0  0  0  0
    0.9053   -2.2045    0.0000 C   0  0  0  0  0  0  0  0  0  0  0  0
    1.7290   -2.1573    0.0000 C   0  0  1  0  0  0  0  0  0  0  0  0
    1.6324   -2.9766    0.0000 O   0  0  0  0  0  0  0  0  0  0  0  0
    2.5191   -2.3947    0.0000 C   0  0  0  0  0  0  0  0  0  0  0  0
    2.7085   -3.1977    0.0000 O   0  0  0  0  0  0  0  0  0  0  0  0
    3.1197   -1.8292    0.0000 O   0  0  0  0  0  0  0  0  0  0  0  0
    3.9098   -2.0666    0.0000 C   0  0  0  0  0  0  0  0  0  0  0  0
    2.1000   -1.4204    0.0000 N   0  0  0  0  0  0  0  0  0  0  0  0
    2.8958   -1.2031    0.0000 C   0  0  0  0  0  0  0  0  0  0  0  0
    3.5899   -1.6491    0.0000 C   0  0  0  0  0  0  0  0  0  0  0  0
    4.3231   -1.2710    0.0000 C   0  0  0  0  0  0  0  0  0  0  0  0
    4.3623   -0.4469    0.0000 C   0  0  0  0  0  0  0  0  0  0  0  0
    3.6683   -0.0009    0.0000 C   0  0  0  0  0  0  0  0  0  0  0  0
    2.9350   -0.3790    0.0000 C   0  0  0  0  0  0  0  0  0  0  0  0
  1  2  1  0  0  0  0
  3  2  1  1  0  0  0
  3  4  1  0  0  0  0
  4  5  1  0  0  0  0
  5  6  1  0  0  0  0
  6  7  1  0  0  0  0
  7  8  1  0  0  0  0
  8  9  1  0  0  0  0
  9 10  1  0  0  0  0
 10 11  4  0  0  0  0
 12 11  1  6  0  0  0
  7 12  1  0  0  0  0
  3 12  1  0  0  0  0
  3 13  1  0  0  0  0
 13 14  1  0  0  0  0
 14 15  1  1  0  0  0
 14 16  1  6  0  0  0
 16 17  2  0  0  0  0
 16 18  1  0  0  0  0
 18 19  1  0  0  0  0
 14 20  1  0  0  0  0
 11 20  4  0  0  0  0
 20 21  4  0  0  0  0
 21 22  4  0  0  0  0
 22 23  4  0  0  0  0
 23 24  4  0  0  0  0
 24 25  4  0  0  0  0
 25 26  4  0  0  0  0
 10 26  4  0  0  0  0
 21 26  4  0  0  0  0
M  END

> <ChembankId>
824

> <SMILES>
CC[C@]1(CCCN2CCc3c4[C@@H]21)C[C@@](O)(C(=O)OC)n4c5ccccc35

> <InChI>
1/C21H26N2O3/c1-3-20-10-6-11-22-12-9-15-14-7-4-5-8-16(14)23(17(15)18(20)22)21(25,13-20)19(24)26-2/h4-5,7-8,18,25H,3,6,9-13H2,1-2H3

$$$$
826
  Marvin  11101114192D          

 31 35  0  0  1  0            999 V2000
    3.1042   -2.1348    0.0000 C   0  0  0  0  0  0  0  0  0  0  0  0
    3.8507   -2.5471    0.0000 C   0  0  0  0  0  0  0  0  0  0  0  0
    3.2877   -3.1871    0.0000 C   0  0  0  0  0  0  0  0  0  0  0  0
    4.1820   -1.7915    0.0000 O   0  0  0  0  0  0  0  0  0  0  0  0
    5.0030   -1.8731    0.0000 C   0  0  2  0  0  0  0  0  0  0  0  0
    5.7151   -1.4566    0.0000 C   0  0  0  0  0  0  0  0  0  0  0  0
    6.3313   -2.0052    0.0000 C   0  0  0  0  0  0  0  0  0  0  0  0
    7.1513   -1.9143    0.0000 C   0  0  0  0  0  0  0  0  0  0  0  0
    7.4826   -1.1588    0.0000 C   0  0  0  0  0  0  0  0  0  0  0  0
    8.3026   -1.0679    0.0000 C   0  0  2  0  0  0  0  0  0  0  0  0
    8.6074   -0.2842    0.0000 F   0  0  0  0  0  0  0  0  0  0  0  0
    8.7913   -1.7326    0.0000 C   0  0  0  0  0  0  0  0  0  0  0  0
    9.6112   -1.6417    0.0000 C   0  0  0  0  0  0  0  0  0  0  0  0
   10.0999   -2.3064    0.0000 C   0  0  0  0  0  0  0  0  0  0  0  0
   10.9337   -2.2141    0.0000 O   0  0  0  0  0  0  0  0  0  0  0  0
    9.7686   -3.0620    0.0000 C   0  0  0  0  0  0  0  0  0  0  0  0
    8.9486   -3.1529    0.0000 C   0  0  0  0  0  0  0  0  0  0  0  0
    8.4600   -2.4882    0.0000 C   0  0  1  0  0  0  0  0  0  0  0  0
    8.2945   -3.3351    0.0000 C   0  0  0  0  0  0  0  0  0  0  0  0
    7.6400   -2.5790    0.0000 C   0  0  0  0  0  0  0  0  0  0  0  0
    7.3087   -3.3346    0.0000 C   0  0  1  0  0  0  0  0  0  0  0  0
    7.5693   -4.1490    0.0000 O   0  0  0  0  0  0  0  0  0  0  0  0
    6.4887   -3.4254    0.0000 C   0  0  0  0  0  0  0  0  0  0  0  0
    6.0000   -2.7607    0.0000 C   0  0  1  0  0  0  0  0  0  0  0  0
    5.8582   -3.6147    0.0000 C   0  0  0  0  0  0  0  0  0  0  0  0
    5.1791   -2.6791    0.0000 C   0  0  2  0  0  0  0  0  0  0  0  0
    4.4669   -3.0956    0.0000 O   0  0  0  0  0  0  0  0  0  0  0  0
    5.0712   -3.6519    0.0000 C   0  0  0  0  0  0  0  0  0  0  0  0
    4.5684   -4.4007    0.0000 O   0  0  0  0  0  0  0  0  0  0  0  0
    5.4200   -4.4610    0.0000 C   0  0  0  0  0  0  0  0  0  0  0  0
    4.9271   -5.1226    0.0000 O   0  0  0  0  0  0  0  0  0  0  0  0
  1  2  1  0  0  0  0
  2  3  1  0  0  0  0
  2  4  1  0  0  0  0
  5  4  1  6  0  0  0
  5  6  1  0  0  0  0
  6  7  1  0  0  0  0
  7  8  1  0  0  0  0
  8  9  1  0  0  0  0
  9 10  1  0  0  0  0
 10 11  1  6  0  0  0
 10 12  1  0  0  0  0
 12 13  2  0  0  0  0
 13 14  1  0  0  0  0
 14 15  2  0  0  0  0
 14 16  1  0  0  0  0
 16 17  1  0  0  0  0
 17 18  1  0  0  0  0
 12 18  1  0  0  0  0
 18 19  1  1  0  0  0
 18 20  1  0  0  0  0
  8 20  1  0  0  0  0
 20 21  1  0  0  0  0
 21 22  1  1  0  0  0
 21 23  1  0  0  0  0
 23 24  1  0  0  0  0
  7 24  1  0  0  0  0
 24 25  1  1  0  0  0
 24 26  1  0  0  0  0
  5 26  1  0  0  0  0
 26 27  1  0  0  0  0
  2 27  1  0  0  0  0
 26 28  1  1  0  0  0
 28 29  2  0  0  0  0
 28 30  1  0  0  0  0
 30 31  1  0  0  0  0
M  END

> <ChembankId>
826

> <SMILES>
CC1(C)O[C@@H]2CC3C4C[C@H](F)C5=CC(=O)CC[C@]5(C)C4[C@@H](O)C[C@]3(C)[C@@]2(O1)C(=O)CO

> <InChI>
1/C24H33FO6/c1-21(2)30-19-9-14-13-8-16(25)15-7-12(27)5-6-22(15,3)20(13)17(28)10-23(14,4)24(19,31-21)18(29)11-26/h7,13-14,16-17,19-20,26,28H,5-6,8-11H2,1-4H3

$$$$
1000036
  Marvin  11101114192D          

 35 39  0  0  1  0            999 V2000
    5.0013   -1.2375    0.0000 C   0  0  0  0  0  0  0  0  0  0  0  0
    4.2868   -1.6500    0.0000 C   0  0  0  0  0  0  0  0  0  0  0  0
    3.5724   -1.2375    0.0000 C   0  0  1  0  0  0  0  0  0  0  0  0
    2.8579   -1.6500    0.0000 C   0  0  0  0  0  0  0  0  0  0  0  0
    2.1434   -1.2375    0.0000 N   0  0  0  0  0  0  0  0  0  0  0  0
    1.4289   -1.6500    0.0000 C   0  0  0  0  0  0  0  0  0  0  0  0
    0.7145   -1.2375    0.0000 C   0  0  0  0  0  0  0  0  0  0  0  0
    0.7145   -0.4125    0.0000 C   0  0  0  0  0  0  0  0  0  0  0  0
   -0.0000    0.0000    0.0000 C   0  0  0  0  0  0  0  0  0  0  0  0
   -0.0000    0.8250    0.0000 C   0  0  0  0  0  0  0  0  0  0  0  0
   -0.7145    1.2375    0.0000 O   0  0  0  0  0  0  0  0  0  0  0  0
   -0.7145    2.0625    0.0000 C   0  0  0  0  0  0  0  0  0  0  0  0
    0.7145    1.2375    0.0000 C   0  0  0  0  0  0  0  0  0  0  0  0
    0.7145    2.0625    0.0000 O   0  0  0  0  0  0  0  0  0  0  0  0
    1.4289    2.4750    0.0000 C   0  0  0  0  0  0  0  0  0  0  0  0
    1.4289    0.8250    0.0000 C   0  0  0  0  0  0  0  0  0  0  0  0
    1.4289    0.0000    0.0000 C   0  0  0  0  0  0  0  0  0  0  0  0
    2.1434   -0.4125    0.0000 C   0  0  0  0  0  0  0  0  0  0  0  0
    2.8579    0.0000    0.0000 C   0  0  0  0  0  0  0  0  0  0  0  0
    3.5724   -0.4125    0.0000 C   0  0  2  0  0  0  0  0  0  0  0  0
    4.2868    0.0000    0.0000 C   0  0  0  0  0  0  0  0  0  0  0  0
    4.2868    0.8250    0.0000 C   0  0  0  0  0  0  0  0  0  0  0  0
    3.5724    1.2375    0.0000 N   0  0  0  0  0  0  0  0  0  0  0  0
    3.5724    2.0625    0.0000 C   0  0  0  0  0  0  0  0  0  0  0  0
    4.2868    2.4750    0.0000 C   0  0  0  0  0  0  0  0  0  0  0  0
    5.0013    2.0625    0.0000 C   0  0  0  0  0  0  0  0  0  0  0  0
    5.7158    2.4750    0.0000 C   0  0  0  0  0  0  0  0  0  0  0  0
    6.4302    2.0625    0.0000 C   0  0  0  0  0  0  0  0  0  0  0  0
    7.1447    2.4750    0.0000 O   0  0  0  0  0  0  0  0  0  0  0  0
    7.1447    3.3000    0.0000 C   0  0  0  0  0  0  0  0  0  0  0  0
    6.4302    1.2375    0.0000 C   0  0  0  0  0  0  0  0  0  0  0  0
    7.1447    0.8250    0.0000 O   0  0  0  0  0  0  0  0  0  0  0  0
    7.1447    0.0000    0.0000 C   0  0  0  0  0  0  0  0  0  0  0  0
    5.7158    0.8250    0.0000 C   0  0  0  0  0  0  0  0  0  0  0  0
    5.0013    1.2375    0.0000 C   0  0  0  0  0  0  0  0  0  0  0  0
  1  2  1  0  0  0  0
  3  2  1  1  0  0  0
  3  4  1  0  0  0  0
  4  5  1  0  0  0  0
  5  6  1  0  0  0  0
  6  7  1  0  0  0  0
  7  8  1  0  0  0  0
  8  9  4  0  0  0  0
  9 10  4  0  0  0  0
 10 11  1  0  0  0  0
 11 12  1  0  0  0  0
 10 13  4  0  0  0  0
 13 14  1  0  0  0  0
 14 15  1  0  0  0  0
 13 16  4  0  0  0  0
 16 17  4  0  0  0  0
  8 17  4  0  0  0  0
 17 18  1  0  0  0  0
  5 18  1  0  0  0  0
 18 19  1  0  0  0  0
 19 20  1  0  0  0  0
  3 20  1  0  0  0  0
 20 21  1  6  0  0  0
 21 22  1  0  0  0  0
 22 23  1  0  0  0  0
 23 24  1  0  0  0  0
 24 25  1  0  0  0  0
 25 26  1  0  0  0  0
 26 27  4  0  0  0  0
 27 28  4  0  0  0  0
 28 29  1  0  0  0  0
 29 30  1  0  0  0  0
 28 31  4  0  0  0  0
 31 32  1  0  0  0  0
 32 33  1  0  0  0  0
 31 34  4  0  0  0  0
 34 35  4  0  0  0  0
 22 35  1  0  0  0  0
 26 35  4  0  0  0  0
M  END

> <ChembankId>
1000036

> <SMILES>
CC[C@H]1CN2CCc3cc(OC)c(OC)cc3C2C[C@@H]1CC4NCCc5cc(OC)c(OC)cc45

> <InChI>
1/C29H40N2O4/c1-6-18-17-31-10-8-20-14-27(33-3)29(35-5)16-23(20)25(31)12-21(18)11-24-22-15-28(34-4)26(32-2)13-19(22)7-9-30-24/h13-16,18,21,24-25,30H,6-12,17H2,1-5H3

$$$$
827
  Marvin  11101114192D          

 32 34  0  0  0  0            999 V2000
    1.4677   -4.7912    0.0000 C   0  0  0  0  0  0  0  0  0  0  0  0
    1.1322   -5.5449    0.0000 C   0  0  0  0  0  0  0  0  0  0  0  0
    0.3117   -5.6312    0.0000 C   0  0  0  0  0  0  0  0  0  0  0  0
   -0.1732   -4.9637    0.0000 C   0  0  0  0  0  0  0  0  0  0  0  0
   -0.9937   -5.0499    0.0000 C   0  0  0  0  0  0  0  0  0  0  0  0
   -0.9937   -4.2249    0.0000 C   0  0  0  0  0  0  0  0  0  0  0  0
   -0.2792   -3.8124    0.0000 O   0  0  0  0  0  0  0  0  0  0  0  0
    0.4352   -4.2249    0.0000 C   0  0  0  0  0  0  0  0  0  0  0  0
    0.4352   -5.0499    0.0000 O   0  0  0  0  0  0  0  0  0  0  0  0
    1.1497   -3.8124    0.0000 C   0  0  0  0  0  0  0  0  0  0  0  0
    1.8642   -4.2249    0.0000 C   0  0  0  0  0  0  0  0  0  0  0  0
    2.5787   -3.8124    0.0000 C   0  0  0  0  0  0  0  0  0  0  0  0
    3.2931   -4.2249    0.0000 O   0  0  0  0  0  0  0  0  0  0  0  0
    2.5787   -2.9874    0.0000 O   0  0  0  0  0  0  0  0  0  0  0  0
   -0.8222   -5.8569    0.0000 C   0  0  0  0  0  0  0  0  0  0  0  0
   -0.0685   -6.1925    0.0000 O   0  0  0  0  0  0  0  0  0  0  0  0
   -1.5366   -6.2694    0.0000 N   0  0  0  0  0  0  0  0  0  0  0  0
   -2.1497   -5.7174    0.0000 N   0  0  0  0  0  0  0  0  0  0  0  0
   -1.8142   -4.9637    0.0000 C   0  0  0  0  0  0  0  0  0  0  0  0
   -2.2267   -4.2492    0.0000 O   0  0  0  0  0  0  0  0  0  0  0  0
   -2.9567   -5.8889    0.0000 C   0  0  0  0  0  0  0  0  0  0  0  0
   -3.2117   -6.6735    0.0000 C   0  0  0  0  0  0  0  0  0  0  0  0
   -4.0186   -6.8451    0.0000 C   0  0  0  0  0  0  0  0  0  0  0  0
   -4.5707   -6.2320    0.0000 C   0  0  0  0  0  0  0  0  0  0  0  0
   -4.3157   -5.4473    0.0000 C   0  0  0  0  0  0  0  0  0  0  0  0
   -3.5087   -5.2758    0.0000 C   0  0  0  0  0  0  0  0  0  0  0  0
   -1.6229   -7.0899    0.0000 C   0  0  0  0  0  0  0  0  0  0  0  0
   -0.9554   -7.5748    0.0000 C   0  0  0  0  0  0  0  0  0  0  0  0
   -1.0417   -8.3953    0.0000 C   0  0  0  0  0  0  0  0  0  0  0  0
   -1.7954   -8.7309    0.0000 C   0  0  0  0  0  0  0  0  0  0  0  0
   -2.4628   -8.2459    0.0000 C   0  0  0  0  0  0  0  0  0  0  0  0
   -2.3766   -7.4255    0.0000 C   0  0  0  0  0  0  0  0  0  0  0  0
  1  2  1  0  0  0  0
  2  3  1  0  0  0  0
  3  4  1  0  0  0  0
  4  5  1  0  0  0  0
  5  6  1  0  0  0  0
  6  7  1  0  0  0  0
  7  8  1  0  0  0  0
  8  9  2  0  0  0  0
  8 10  1  0  0  0  0
 10 11  1  0  0  0  0
 11 12  1  0  0  0  0
 12 13  2  0  0  0  0
 12 14  1  0  0  0  0
  5 15  1  0  0  0  0
 15 16  2  0  0  0  0
 15 17  1  0  0  0  0
 17 18  1  0  0  0  0
 18 19  1  0  0  0  0
  5 19  1  0  0  0  0
 19 20  2  0  0  0  0
 18 21  1  0  0  0  0
 21 22  4  0  0  0  0
 22 23  4  0  0  0  0
 23 24  4  0  0  0  0
 24 25  4  0  0  0  0
 25 26  4  0  0  0  0
 21 26  4  0  0  0  0
 17 27  1  0  0  0  0
 27 28  4  0  0  0  0
 28 29  4  0  0  0  0
 29 30  4  0  0  0  0
 30 31  4  0  0  0  0
 31 32  4  0  0  0  0
 27 32  4  0  0  0  0
M  END

> <ChembankId>
827

> <SMILES>
CCCCC1(COC(=O)CCC(=O)O)C(=O)N(N(C1=O)c2ccccc2)c3ccccc3

> <InChI>
1/C24H26N2O6/c1-2-3-16-24(17-32-21(29)15-14-20(27)28)22(30)25(18-10-6-4-7-11-18)26(23(24)31)19-12-8-5-9-13-19/h4-13H,2-3,14-17H2,1H3,(H,27,28)

$$$$
830
  Marvin  11101114192D          

 21 22  0  0  0  0            999 V2000
   -3.5724   -0.4125    0.0000 C   0  0  0  0  0  0  0  0  0  0  0  0
   -2.8579   -0.0000    0.0000 O   0  0  0  0  0  0  0  0  0  0  0  0
   -2.1434   -0.4125    0.0000 C   0  0  0  0  0  0  0  0  0  0  0  0
   -1.4289   -0.0000    0.0000 C   0  0  0  0  0  0  0  0  0  0  0  0
   -0.7145   -0.4125    0.0000 C   0  0  0  0  0  0  0  0  0  0  0  0
   -0.7145   -1.2375    0.0000 C   0  0  0  0  0  0  0  0  0  0  0  0
    0.0000   -1.6500    0.0000 C   0  0  0  0  0  0  0  0  0  0  0  0
    0.7145   -1.2375    0.0000 N   0  0  0  0  0  0  0  0  0  0  0  0
    1.4289   -1.6500    0.0000 C   0  0  0  0  0  0  0  0  0  0  0  0
    2.1434   -1.2375    0.0000 C   0  0  0  0  0  0  0  0  0  0  0  0
    2.8579   -1.6500    0.0000 N   0  0  0  0  0  0  0  0  0  0  0  0
    3.5724   -1.2375    0.0000 C   0  0  0  0  0  0  0  0  0  0  0  0
    2.8579   -2.4750    0.0000 C   0  0  0  0  0  0  0  0  0  0  0  0
    0.7145   -0.4125    0.0000 C   0  0  0  0  0  0  0  0  0  0  0  0
    0.0000    0.0000    0.0000 C   0  0  0  0  0  0  0  0  0  0  0  0
    0.0000    0.8250    0.0000 C   0  0  0  0  0  0  0  0  0  0  0  0
    0.7145    1.2375    0.0000 C   0  0  0  0  0  0  0  0  0  0  0  0
    1.4289    0.8250    0.0000 C   0  0  0  0  0  0  0  0  0  0  0  0
    1.4289    0.0000    0.0000 N   0  0  0  0  0  0  0  0  0  0  0  0
   -1.4289   -1.6500    0.0000 C   0  0  0  0  0  0  0  0  0  0  0  0
   -2.1434   -1.2375    0.0000 C   0  0  0  0  0  0  0  0  0  0  0  0
  1  2  1  0  0  0  0
  2  3  1  0  0  0  0
  3  4  4  0  0  0  0
  4  5  4  0  0  0  0
  5  6  4  0  0  0  0
  6  7  1  0  0  0  0
  7  8  1  0  0  0  0
  8  9  1  0  0  0  0
  9 10  1  0  0  0  0
 10 11  1  0  0  0  0
 11 12  1  0  0  0  0
 11 13  1  0  0  0  0
  8 14  1  0  0  0  0
 14 15  4  0  0  0  0
 15 16  4  0  0  0  0
 16 17  4  0  0  0  0
 17 18  4  0  0  0  0
 18 19  4  0  0  0  0
 14 19  4  0  0  0  0
  6 20  4  0  0  0  0
 20 21  4  0  0  0  0
  3 21  4  0  0  0  0
M  END

> <ChembankId>
830

> <SMILES>
COc1ccc(CN(CCN(C)C)c2ccccn2)cc1

> <InChI>
1/C17H23N3O/c1-19(2)12-13-20(17-6-4-5-11-18-17)14-15-7-9-16(21-3)10-8-15/h4-11H,12-14H2,1-3H3

$$$$
833
  Marvin  11101114192D          

 21 22  0  0  1  0            999 V2000
    3.5330   -1.2367    0.0000 C   0  0  0  0  0  0  0  0  0  0  0  0
    4.2475   -1.6492    0.0000 C   0  0  0  0  0  0  0  0  0  0  0  0
    3.8350   -2.3636    0.0000 C   0  0  0  0  0  0  0  0  0  0  0  0
    4.6600   -0.9347    0.0000 C   0  0  0  0  0  0  0  0  0  0  0  0
    4.9620   -2.0617    0.0000 N   0  0  0  0  0  0  0  0  0  0  0  0
    5.6764   -1.6492    0.0000 C   0  0  0  0  0  0  0  0  0  0  0  0
    6.3909   -2.0617    0.0000 C   0  0  1  0  0  0  0  0  0  0  0  0
    6.3909   -2.8867    0.0000 O   0  0  0  0  0  0  0  0  0  0  0  0
    7.1054   -1.6492    0.0000 C   0  0  0  0  0  0  0  0  0  0  0  0
    7.8198   -2.0617    0.0000 O   0  0  0  0  0  0  0  0  0  0  0  0
    8.5343   -1.6492    0.0000 C   0  0  0  0  0  0  0  0  0  0  0  0
    8.6206   -0.8287    0.0000 N   0  0  0  0  0  0  0  0  0  0  0  0
    9.4275   -0.6572    0.0000 S   0  0  0  0  0  0  0  0  0  0  0  0
    9.8400   -1.3716    0.0000 N   0  0  0  0  0  0  0  0  0  0  0  0
    9.2880   -1.9847    0.0000 C   0  0  0  0  0  0  0  0  0  0  0  0
    9.4595   -2.7917    0.0000 N   0  0  0  0  0  0  0  0  0  0  0  0
   10.2441   -3.0466    0.0000 C   0  0  0  0  0  0  0  0  0  0  0  0
   10.4157   -3.8536    0.0000 C   0  0  0  0  0  0  0  0  0  0  0  0
    9.8026   -4.4056    0.0000 O   0  0  0  0  0  0  0  0  0  0  0  0
    9.0180   -4.1507    0.0000 C   0  0  0  0  0  0  0  0  0  0  0  0
    8.8464   -3.3437    0.0000 C   0  0  0  0  0  0  0  0  0  0  0  0
  1  2  1  0  0  0  0
  2  3  1  0  0  0  0
  2  4  1  0  0  0  0
  2  5  1  0  0  0  0
  5  6  1  0  0  0  0
  6  7  1  0  0  0  0
  7  8  1  6  0  0  0
  7  9  1  0  0  0  0
  9 10  1  0  0  0  0
 10 11  1  0  0  0  0
 11 12  4  0  0  0  0
 12 13  4  0  0  0  0
 13 14  4  0  0  0  0
 14 15  4  0  0  0  0
 11 15  4  0  0  0  0
 15 16  1  0  0  0  0
 16 17  1  0  0  0  0
 17 18  1  0  0  0  0
 18 19  1  0  0  0  0
 19 20  1  0  0  0  0
 20 21  1  0  0  0  0
 16 21  1  0  0  0  0
M  END

> <ChembankId>
833

> <SMILES>
CC(C)(C)NC[C@@H](O)COc1nsnc1N2CCOCC2

> <InChI>
1/C13H24N4O3S/c1-13(2,3)14-8-10(18)9-20-12-11(15-21-16-12)17-4-6-19-7-5-17/h10,14,18H,4-9H2,1-3H3

$$$$
834
  Marvin  11101114192D          

 11 10  0  0  0  0            999 V2000
    3.9039    0.6039    0.0000 C   0  0  0  0  0  0  0  0  0  0  0  0
    3.9039    1.4289    0.0000 C   0  0  0  0  0  0  0  0  0  0  0  0
    3.1895    1.8414    0.0000 C   0  0  0  0  0  0  0  0  0  0  0  0
    2.4750    1.4289    0.0000 N   0  3  0  0  0  0  0  0  0  0  0  0
    1.7605    1.0164    0.0000 C   0  0  0  0  0  0  0  0  0  0  0  0
    2.8875    0.7145    0.0000 C   0  0  0  0  0  0  0  0  0  0  0  0
    2.0625    2.1434    0.0000 C   0  0  0  0  0  0  0  0  0  0  0  0
    4.6184    1.8414    0.0000 O   0  0  0  0  0  0  0  0  0  0  0  0
    5.3329    1.4289    0.0000 C   0  0  0  0  0  0  0  0  0  0  0  0
    6.0474    1.8414    0.0000 O   0  0  0  0  0  0  0  0  0  0  0  0
    5.3329    0.6039    0.0000 N   0  0  0  0  0  0  0  0  0  0  0  0
  1  2  1  0  0  0  0
  2  3  1  0  0  0  0
  3  4  1  0  0  0  0
  4  5  1  0  0  0  0
  4  6  1  0  0  0  0
  4  7  1  0  0  0  0
  2  8  1  0  0  0  0
  8  9  1  0  0  0  0
  9 10  2  0  0  0  0
  9 11  1  0  0  0  0
M  CHG  1   4   1
M  END

> <ChembankId>
834

> <SMILES>
CC(C[N+](C)(C)C)OC(=O)N

> <InChI>
1/C7H16N2O2/c1-6(11-7(8)10)5-9(2,3)4/h6H,5H2,1-4H3,(H-,8,10)/p+1

$$$$
838
  Marvin  11101114192D          

 17 18  0  0  0  0            999 V2000
    1.4289    0.0000    0.0000 C   0  0  0  0  0  0  0  0  0  0  0  0
    2.1434   -0.4125    0.0000 O   0  0  0  0  0  0  0  0  0  0  0  0
    2.1434   -1.2375    0.0000 C   0  0  0  0  0  0  0  0  0  0  0  0
    2.8579   -1.6500    0.0000 C   0  0  0  0  0  0  0  0  0  0  0  0
    2.8579   -2.4750    0.0000 C   0  0  0  0  0  0  0  0  0  0  0  0
    2.1434   -2.8875    0.0000 C   0  0  0  0  0  0  0  0  0  0  0  0
    2.1434   -3.7125    0.0000 C   0  0  0  0  0  0  0  0  0  0  0  0
    2.8579   -4.1250    0.0000 O   0  0  0  0  0  0  0  0  0  0  0  0
    1.4289   -4.1250    0.0000 C   0  0  0  0  0  0  0  0  0  0  0  0
    1.4289   -4.9500    0.0000 C   0  0  0  0  0  0  0  0  0  0  0  0
    0.7145   -5.3625    0.0000 C   0  0  0  0  0  0  0  0  0  0  0  0
   -0.0000   -4.9500    0.0000 C   0  0  0  0  0  0  0  0  0  0  0  0
   -0.0000   -4.1250    0.0000 C   0  0  0  0  0  0  0  0  0  0  0  0
    0.7145   -3.7125    0.0000 C   0  0  0  0  0  0  0  0  0  0  0  0
    1.4289   -2.4750    0.0000 C   0  0  0  0  0  0  0  0  0  0  0  0
    0.7145   -2.8875    0.0000 O   0  0  0  0  0  0  0  0  0  0  0  0
    1.4289   -1.6500    0.0000 C   0  0  0  0  0  0  0  0  0  0  0  0
  1  2  1  0  0  0  0
  2  3  1  0  0  0  0
  3  4  4  0  0  0  0
  4  5  4  0  0  0  0
  5  6  4  0  0  0  0
  6  7  1  0  0  0  0
  7  8  2  0  0  0  0
  7  9  1  0  0  0  0
  9 10  4  0  0  0  0
 10 11  4  0  0  0  0
 11 12  4  0  0  0  0
 12 13  4  0  0  0  0
 13 14  4  0  0  0  0
  9 14  4  0  0  0  0
  6 15  4  0  0  0  0
 15 16  1  0  0  0  0
 15 17  4  0  0  0  0
  3 17  4  0  0  0  0
M  END

> <ChembankId>
838

> <SMILES>
COc1ccc(C(=O)c2ccccc2)c(O)c1

> <InChI>
1/C14H12O3/c1-17-11-7-8-12(13(15)9-11)14(16)10-5-3-2-4-6-10/h2-9,15H,1H3

$$$$
839
  Marvin  11101114192D          

 16 17  0  0  0  0            999 V2000
   -5.4716    3.8949    0.0000 N   0  0  0  0  0  0  0  0  0  0  0  0
   -5.2166    3.1103    0.0000 C   0  0  0  0  0  0  0  0  0  0  0  0
   -4.4097    2.9388    0.0000 N   0  0  0  0  0  0  0  0  0  0  0  0
   -4.1547    2.1542    0.0000 C   0  0  0  0  0  0  0  0  0  0  0  0
   -3.4010    1.8186    0.0000 N   0  0  0  0  0  0  0  0  0  0  0  0
   -2.6866    2.2311    0.0000 C   0  0  0  0  0  0  0  0  0  0  0  0
   -1.9721    1.8186    0.0000 O   0  0  0  0  0  0  0  0  0  0  0  0
   -1.2576    2.2311    0.0000 C   0  0  0  0  0  0  0  0  0  0  0  0
   -0.5432    1.8186    0.0000 C   0  0  0  0  0  0  0  0  0  0  0  0
    0.1713    2.2311    0.0000 O   0  0  0  0  0  0  0  0  0  0  0  0
   -3.4873    0.9981    0.0000 C   0  0  0  0  0  0  0  0  0  0  0  0
   -4.2942    0.8266    0.0000 N   0  0  0  0  0  0  0  0  0  0  0  0
   -4.7067    1.5411    0.0000 C   0  0  0  0  0  0  0  0  0  0  0  0
   -5.5137    1.7126    0.0000 C   0  0  0  0  0  0  0  0  0  0  0  0
   -6.0658    1.0995    0.0000 O   0  0  0  0  0  0  0  0  0  0  0  0
   -5.7687    2.4972    0.0000 N   0  0  0  0  0  0  0  0  0  0  0  0
  1  2  1  0  0  0  0
  2  3  4  0  0  0  0
  3  4  4  0  0  0  0
  4  5  4  0  0  0  0
  5  6  1  0  0  0  0
  6  7  1  0  0  0  0
  7  8  1  0  0  0  0
  8  9  1  0  0  0  0
  9 10  1  0  0  0  0
  5 11  4  0  0  0  0
 11 12  4  0  0  0  0
 12 13  4  0  0  0  0
  4 13  4  0  0  0  0
 13 14  4  0  0  0  0
 14 15  2  0  0  0  0
 14 16  4  0  0  0  0
  2 16  4  0  0  0  0
M  STY  1   1 DAT
M  SAL   1  1  16
M  SDT   1 MRV_IMPLICIT_H                                        
M  SDD   1     0.0000    0.0000    DR    ALL  0       0  
M  SED   1 IMPL_H1
M  END

> <ChembankId>
839

> <SMILES>
Nc1nc2n(COCCO)cnc2c(=O)[nH]1

> <InChI>
1/C8H11N5O3/c9-8-11-6-5(7(15)12-8)10-3-13(6)4-16-2-1-14/h3,14H,1-2,4H2,(H3,9,11,12,15)

$$$$
840
  Marvin  11101114192D          

 29 32  0  0  1  0            999 V2000
   -0.3194    0.8741    0.0000 C   0  0  0  0  0  0  0  0  0  0  0  0
   -0.1059    1.6709    0.0000 C   0  0  0  0  0  0  0  0  0  0  0  0
    0.6910    1.8845    0.0000 O   0  0  0  0  0  0  0  0  0  0  0  0
    0.9046    2.6814    0.0000 C   0  0  0  0  0  0  0  0  0  0  0  0
    0.3212    3.2647    0.0000 C   0  0  0  0  0  0  0  0  0  0  0  0
    0.5347    4.0616    0.0000 C   0  0  0  0  0  0  0  0  0  0  0  0
    1.3316    4.2751    0.0000 C   0  0  0  0  0  0  0  0  0  0  0  0
    1.5451    5.0720    0.0000 C   0  0  0  0  0  0  0  0  0  0  0  0
    2.3420    5.2855    0.0000 C   0  0  0  0  0  0  0  0  0  0  0  0
    2.9254    4.7022    0.0000 C   0  0  0  0  0  0  0  0  0  0  0  0
    2.7119    3.9053    0.0000 C   0  0  0  0  0  0  0  0  0  0  0  0
    1.9150    3.6918    0.0000 C   0  0  0  0  0  0  0  0  0  0  0  0
    1.7014    2.8949    0.0000 C   0  0  0  0  0  0  0  0  0  0  0  0
    2.2848    2.3115    0.0000 N   0  0  0  0  0  0  0  0  0  0  0  0
    3.0817    2.5250    0.0000 C   0  0  0  0  0  0  0  0  0  0  0  0
    3.2952    3.3219    0.0000 O   0  0  0  0  0  0  0  0  0  0  0  0
    3.6651    1.9417    0.0000 C   0  0  1  0  0  0  0  0  0  0  0  0
    4.4901    1.9417    0.0000 C   0  0  1  0  0  0  0  0  0  0  0  0
    5.2747    2.1966    0.0000 S   0  0  0  0  0  0  0  0  0  0  0  0
    5.7596    1.5292    0.0000 C   0  0  0  0  0  0  0  0  0  0  0  0
    6.3727    2.0812    0.0000 C   0  0  0  0  0  0  0  0  0  0  0  0
    6.3727    0.9771    0.0000 C   0  0  0  0  0  0  0  0  0  0  0  0
    5.2747    0.8617    0.0000 C   0  0  0  0  0  0  0  0  0  0  0  0
    4.4901    1.1167    0.0000 N   0  0  0  0  0  0  0  0  0  0  0  0
    3.6651    1.1167    0.0000 C   0  0  0  0  0  0  0  0  0  0  0  0
    3.0817    0.5333    0.0000 O   0  0  0  0  0  0  0  0  0  0  0  0
    5.5296    0.0771    0.0000 C   0  0  0  0  0  0  0  0  0  0  0  0
    6.3366   -0.0944    0.0000 O   0  0  0  0  0  0  0  0  0  0  0  0
    4.9776   -0.5360    0.0000 O   0  0  0  0  0  0  0  0  0  0  0  0
  1  2  1  0  0  0  0
  2  3  1  0  0  0  0
  3  4  1  0  0  0  0
  4  5  4  0  0  0  0
  5  6  4  0  0  0  0
  6  7  4  0  0  0  0
  7  8  4  0  0  0  0
  8  9  4  0  0  0  0
  9 10  4  0  0  0  0
 10 11  4  0  0  0  0
 11 12  4  0  0  0  0
  7 12  4  0  0  0  0
 12 13  4  0  0  0  0
  4 13  4  0  0  0  0
 13 14  1  0  0  0  0
 14 15  1  0  0  0  0
 15 16  2  0  0  0  0
 17 15  1  1  0  0  0
 17 18  1  0  0  0  0
 18 19  1  0  0  0  0
 19 20  1  0  0  0  0
 20 21  1  0  0  0  0
 20 22  1  0  0  0  0
 20 23  1  0  0  0  0
 23 24  1  0  0  0  0
 18 24  1  1  0  0  0
 24 25  1  0  0  0  0
 17 25  1  0  0  0  0
 25 26  2  0  0  0  0
 23 27  1  0  0  0  0
 27 28  2  0  0  0  0
 27 29  1  0  0  0  0
M  END

> <ChembankId>
840

> <SMILES>
CCOc1ccc2ccccc2c1NC(=O)[C@H]3[C@H]4SC(C)(C)C(N4C3=O)C(=O)O

> <InChI>
1/C21H22N2O5S/c1-4-28-13-10-9-11-7-5-6-8-12(11)15(13)22-17(24)14-18(25)23-16(20(26)27)21(2,3)29-19(14)23/h5-10,14,16,19H,4H2,1-3H3,(H,22,24)(H,26,27)

$$$$
841
  Marvin  11101114192D          

 31 32  0  0  0  0            999 V2000
   -2.1434   -2.8875    0.0000 C   0  0  0  0  0  0  0  0  0  0  0  0
   -1.4289   -2.4750    0.0000 C   0  0  0  0  0  0  0  0  0  0  0  0
   -1.4289   -1.6500    0.0000 C   0  0  0  0  0  0  0  0  0  0  0  0
   -0.7145   -1.2375    0.0000 C   0  0  0  0  0  0  0  0  0  0  0  0
    0.0000   -1.6500    0.0000 C   0  0  0  0  0  0  0  0  0  0  0  0
    0.7145   -1.2375    0.0000 O   0  0  0  0  0  0  0  0  0  0  0  0
    1.4289   -1.6500    0.0000 P   0  0  0  0  0  0  0  0  0  0  0  0
    1.0164   -2.3645    0.0000 O   0  0  0  0  0  0  0  0  0  0  0  0
    1.8414   -0.9355    0.0000 O   0  0  0  0  0  0  0  0  0  0  0  0
    2.1434   -2.0625    0.0000 O   0  0  0  0  0  0  0  0  0  0  0  0
   -2.1434   -1.2375    0.0000 S   0  0  0  0  0  0  0  0  0  0  0  0
   -2.1434   -0.4125    0.0000 C   0  0  0  0  0  0  0  0  0  0  0  0
   -1.4289   -0.0000    0.0000 O   0  0  0  0  0  0  0  0  0  0  0  0
   -2.8579   -0.0000    0.0000 C   0  0  0  0  0  0  0  0  0  0  0  0
   -3.5724   -0.4125    0.0000 C   0  0  0  0  0  0  0  0  0  0  0  0
   -4.2868   -0.0000    0.0000 C   0  0  0  0  0  0  0  0  0  0  0  0
   -4.2868    0.8250    0.0000 C   0  0  0  0  0  0  0  0  0  0  0  0
   -3.5724    1.2375    0.0000 C   0  0  0  0  0  0  0  0  0  0  0  0
   -2.8579    0.8250    0.0000 C   0  0  0  0  0  0  0  0  0  0  0  0
   -0.7145   -2.8875    0.0000 N   0  0  0  0  0  0  0  0  0  0  0  0
    0.0000   -2.4750    0.0000 C   0  0  0  0  0  0  0  0  0  0  0  0
    0.7145   -2.8875    0.0000 C   0  0  0  0  0  0  0  0  0  0  0  0
    1.4289   -2.4750    0.0000 C   0  0  0  0  0  0  0  0  0  0  0  0
    2.1434   -2.8875    0.0000 N   0  0  0  0  0  0  0  0  0  0  0  0
    2.1434   -3.7125    0.0000 C   0  0  0  0  0  0  0  0  0  0  0  0
    2.8579   -4.1250    0.0000 C   0  0  0  0  0  0  0  0  0  0  0  0
    1.4289   -4.1250    0.0000 N   0  0  0  0  0  0  0  0  0  0  0  0
    0.7145   -3.7125    0.0000 C   0  0  0  0  0  0  0  0  0  0  0  0
    0.0000   -4.1250    0.0000 N   0  0  0  0  0  0  0  0  0  0  0  0
   -0.7145   -3.7125    0.0000 C   0  0  0  0  0  0  0  0  0  0  0  0
   -1.4289   -4.1250    0.0000 O   0  0  0  0  0  0  0  0  0  0  0  0
  1  2  1  0  0  0  0
  2  3  2  0  0  0  0
  3  4  1  0  0  0  0
  4  5  1  0  0  0  0
  5  6  1  0  0  0  0
  6  7  1  0  0  0  0
  7  8  2  0  0  0  0
  7  9  1  0  0  0  0
  7 10  1  0  0  0  0
  3 11  1  0  0  0  0
 11 12  1  0  0  0  0
 12 13  2  0  0  0  0
 12 14  1  0  0  0  0
 14 15  4  0  0  0  0
 15 16  4  0  0  0  0
 16 17  4  0  0  0  0
 17 18  4  0  0  0  0
 18 19  4  0  0  0  0
 14 19  4  0  0  0  0
  2 20  1  0  0  0  0
 20 21  1  0  0  0  0
 21 22  1  0  0  0  0
 22 23  4  0  0  0  0
 23 24  4  0  0  0  0
 24 25  4  0  0  0  0
 25 26  1  0  0  0  0
 25 27  4  0  0  0  0
 27 28  4  0  0  0  0
 22 28  4  0  0  0  0
 28 29  1  0  0  0  0
 20 30  1  0  0  0  0
 30 31  2  0  0  0  0
M  END

> <ChembankId>
841

> <SMILES>
C/C(=C(/CCOP(=O)(O)O)\SC(=O)c1ccccc1)/N(Cc2cnc(C)nc2N)C=O

> <InChI>
1/C19H23N4O6PS/c1-13(23(12-24)11-16-10-21-14(2)22-18(16)20)17(8-9-29-30(26,27)28)31-19(25)15-6-4-3-5-7-15/h3-7,10,12H,8-9,11H2,1-2H3,(H2,20,21,22)(H2,26,27,28)

$$$$
844
  Marvin  11101114192D          

 20 22  0  0  0  0            999 V2000
   -0.5463   -2.6842    0.0000 C   0  0  0  0  0  0  0  0  0  0  0  0
    0.1681   -3.0967    0.0000 N   0  0  0  0  0  0  0  0  0  0  0  0
    0.8826   -2.6842    0.0000 C   0  0  0  0  0  0  0  0  0  0  0  0
    1.5971   -3.0967    0.0000 C   0  0  0  0  0  0  0  0  0  0  0  0
    2.3116   -2.6842    0.0000 C   0  0  0  0  0  0  0  0  0  0  0  0
    3.0260   -3.0967    0.0000 N   0  0  0  0  0  0  0  0  0  0  0  0
    3.7077   -2.6319    0.0000 C   0  0  0  0  0  0  0  0  0  0  0  0
    3.5241   -1.8276    0.0000 C   0  0  0  0  0  0  0  0  0  0  0  0
    4.1289   -1.2665    0.0000 C   0  0  0  0  0  0  0  0  0  0  0  0
    4.9172   -1.5096    0.0000 C   0  0  0  0  0  0  0  0  0  0  0  0
    5.1008   -2.3139    0.0000 C   0  0  0  0  0  0  0  0  0  0  0  0
    4.4960   -2.8751    0.0000 C   0  0  0  0  0  0  0  0  0  0  0  0
    4.7974   -3.6431    0.0000 C   0  0  0  0  0  0  0  0  0  0  0  0
    4.3849   -4.3575    0.0000 C   0  0  0  0  0  0  0  0  0  0  0  0
    3.5691   -4.4805    0.0000 C   0  0  0  0  0  0  0  0  0  0  0  0
    3.3856   -5.2848    0.0000 C   0  0  0  0  0  0  0  0  0  0  0  0
    2.5972   -5.5280    0.0000 C   0  0  0  0  0  0  0  0  0  0  0  0
    1.9925   -4.9668    0.0000 C   0  0  0  0  0  0  0  0  0  0  0  0
    2.1760   -4.1625    0.0000 C   0  0  0  0  0  0  0  0  0  0  0  0
    2.9644   -3.9193    0.0000 C   0  0  0  0  0  0  0  0  0  0  0  0
  1  2  1  0  0  0  0
  2  3  1  0  0  0  0
  3  4  1  0  0  0  0
  4  5  1  0  0  0  0
  5  6  1  0  0  0  0
  6  7  1  0  0  0  0
  7  8  4  0  0  0  0
  8  9  4  0  0  0  0
  9 10  4  0  0  0  0
 10 11  4  0  0  0  0
 11 12  4  0  0  0  0
  7 12  4  0  0  0  0
 12 13  1  0  0  0  0
 13 14  1  0  0  0  0
 14 15  1  0  0  0  0
 15 16  4  0  0  0  0
 16 17  4  0  0  0  0
 17 18  4  0  0  0  0
 18 19  4  0  0  0  0
 19 20  4  0  0  0  0
  6 20  1  0  0  0  0
 15 20  4  0  0  0  0
M  END

> <ChembankId>
844

> <SMILES>
CNCCCN1c2ccccc2CCc3ccccc13

> <InChI>
1/C18H22N2/c1-19-13-6-14-20-17-9-4-2-7-15(17)11-12-16-8-3-5-10-18(16)20/h2-5,7-10,19H,6,11-14H2,1H3

$$$$
1000109
  Marvin  11101114192D          

 19 21  0  0  1  0            999 V2000
    3.2789    2.0625    0.0000 N   0  0  0  0  0  0  0  0  0  0  0  0
    3.2789    1.2375    0.0000 C   0  0  0  0  0  0  0  0  0  0  0  0
    3.9934    0.8250    0.0000 N   0  0  0  0  0  0  0  0  0  0  0  0
    3.9934    0.0000    0.0000 C   0  0  0  0  0  0  0  0  0  0  0  0
    3.2789   -0.4125    0.0000 N   0  0  0  0  0  0  0  0  0  0  0  0
    2.5645    0.0000    0.0000 C   0  0  0  0  0  0  0  0  0  0  0  0
    1.7798   -0.2549    0.0000 N   0  0  0  0  0  0  0  0  0  0  0  0
    1.2949    0.4125    0.0000 C   0  0  0  0  0  0  0  0  0  0  0  0
    1.7798    1.0799    0.0000 N   0  0  0  0  0  0  0  0  0  0  0  0
    2.5645    0.8250    0.0000 C   0  0  0  0  0  0  0  0  0  0  0  0
    1.5249   -1.0396    0.0000 C   0  0  2  0  0  0  0  0  0  0  0  0
    2.0098   -1.7070    0.0000 O   0  0  0  0  0  0  0  0  0  0  0  0
    1.5249   -2.3744    0.0000 C   0  0  2  0  0  0  0  0  0  0  0  0
    1.7798   -3.1591    0.0000 C   0  0  0  0  0  0  0  0  0  0  0  0
    2.5868   -3.3306    0.0000 O   0  0  0  0  0  0  0  0  0  0  0  0
    0.7403   -2.1195    0.0000 C   0  0  1  0  0  0  0  0  0  0  0  0
    0.0728   -2.6044    0.0000 O   0  0  0  0  0  0  0  0  0  0  0  0
    0.7403   -1.2945    0.0000 C   0  0  2  0  0  0  0  0  0  0  0  0
    0.0728   -0.8096    0.0000 O   0  0  0  0  0  0  0  0  0  0  0  0
  1  2  1  0  0  0  0
  2  3  4  0  0  0  0
  3  4  4  0  0  0  0
  4  5  4  0  0  0  0
  5  6  4  0  0  0  0
  6  7  4  0  0  0  0
  7  8  4  0  0  0  0
  8  9  4  0  0  0  0
  9 10  4  0  0  0  0
  2 10  4  0  0  0  0
  6 10  4  0  0  0  0
 11  7  1  6  0  0  0
 11 12  1  0  0  0  0
 12 13  1  0  0  0  0
 13 14  1  6  0  0  0
 14 15  1  0  0  0  0
 13 16  1  0  0  0  0
 16 17  1  1  0  0  0
 16 18  1  0  0  0  0
 11 18  1  0  0  0  0
 18 19  1  6  0  0  0
M  END

> <ChembankId>
1000109

> <SMILES>
Nc1ncnc2n(cnc12)[C@@H]3O[C@H](CO)[C@@H](O)[C@@H]3O

> <InChI>
1/C10H13N5O4/c11-8-5-9(13-2-12-8)15(3-14-5)10-7(18)6(17)4(1-16)19-10/h2-4,6-7,10,16-18H,1H2,(H2,11,12,13)

$$$$
850
  Marvin  11101114192D          

 26 29  0  0  0  0            999 V2000
   -2.6462   -6.4137    0.0000 Cl  0  0  0  0  0  0  0  0  0  0  0  0
   -3.0587   -5.6992    0.0000 C   0  0  0  0  0  0  0  0  0  0  0  0
   -3.8837   -5.6992    0.0000 C   0  0  0  0  0  0  0  0  0  0  0  0
   -4.2962   -4.9848    0.0000 C   0  0  0  0  0  0  0  0  0  0  0  0
   -3.8837   -4.2703    0.0000 C   0  0  0  0  0  0  0  0  0  0  0  0
   -3.0587   -4.2703    0.0000 C   0  0  0  0  0  0  0  0  0  0  0  0
   -2.6462   -4.9848    0.0000 C   0  0  0  0  0  0  0  0  0  0  0  0
   -2.6462   -3.5558    0.0000 N   0  0  0  0  0  0  0  0  0  0  0  0
   -3.0587   -2.8414    0.0000 C   0  0  0  0  0  0  0  0  0  0  0  0
   -2.6462   -2.1269    0.0000 C   0  0  0  0  0  0  0  0  0  0  0  0
   -1.8212   -2.1269    0.0000 N   0  0  0  0  0  0  0  0  0  0  0  0
   -1.4087   -1.4124    0.0000 C   0  0  0  0  0  0  0  0  0  0  0  0
   -0.5837   -1.4124    0.0000 C   0  0  0  0  0  0  0  0  0  0  0  0
   -0.1712   -0.6979    0.0000 C   0  0  0  0  0  0  0  0  0  0  0  0
    0.6538   -0.6979    0.0000 N   0  0  0  0  0  0  0  0  0  0  0  0
    1.1387   -0.0305    0.0000 N   0  0  0  0  0  0  0  0  0  0  0  0
    1.9233   -0.2854    0.0000 C   0  0  0  0  0  0  0  0  0  0  0  0
    2.6378    0.1271    0.0000 C   0  0  0  0  0  0  0  0  0  0  0  0
    3.3523   -0.2854    0.0000 C   0  0  0  0  0  0  0  0  0  0  0  0
    3.3523   -1.1104    0.0000 C   0  0  0  0  0  0  0  0  0  0  0  0
    2.6378   -1.5229    0.0000 C   0  0  0  0  0  0  0  0  0  0  0  0
    1.9233   -1.1104    0.0000 N   0  0  0  0  0  0  0  0  0  0  0  0
    1.1387   -1.3654    0.0000 C   0  0  0  0  0  0  0  0  0  0  0  0
    0.8838   -2.1500    0.0000 O   0  0  0  0  0  0  0  0  0  0  0  0
   -1.4087   -2.8414    0.0000 C   0  0  0  0  0  0  0  0  0  0  0  0
   -1.8212   -3.5558    0.0000 C   0  0  0  0  0  0  0  0  0  0  0  0
  1  2  1  0  0  0  0
  2  3  4  0  0  0  0
  3  4  4  0  0  0  0
  4  5  4  0  0  0  0
  5  6  4  0  0  0  0
  6  7  4  0  0  0  0
  2  7  4  0  0  0  0
  6  8  1  0  0  0  0
  8  9  1  0  0  0  0
  9 10  1  0  0  0  0
 10 11  1  0  0  0  0
 11 12  1  0  0  0  0
 12 13  1  0  0  0  0
 13 14  1  0  0  0  0
 14 15  1  0  0  0  0
 15 16  4  0  0  0  0
 16 17  4  0  0  0  0
 17 18  4  0  0  0  0
 18 19  4  0  0  0  0
 19 20  4  0  0  0  0
 20 21  4  0  0  0  0
 21 22  4  0  0  0  0
 17 22  4  0  0  0  0
 22 23  4  0  0  0  0
 15 23  4  0  0  0  0
 23 24  2  0  0  0  0
 11 25  1  0  0  0  0
 25 26  1  0  0  0  0
  8 26  1  0  0  0  0
M  END

> <ChembankId>
850

> <SMILES>
Clc1cccc(c1)N2CCN(CCCn3nc4ccccn4c3=O)CC2

> <InChI>
1/C19H22ClN5O/c20-16-5-3-6-17(15-16)23-13-11-22(12-14-23)8-4-10-25-19(26)24-9-2-1-7-18(24)21-25/h1-3,5-7,9,15H,4,8,10-14H2

$$$$
3045140
  Marvin  11101114192D          

 24 26  0  0  1  0            999 V2000
    0.3051    1.2983    0.0000 C   0  0  0  0  0  0  0  0  0  0  0  0
    0.8111    0.6467    0.0000 C   0  0  0  0  0  0  0  0  0  0  0  0
    1.6284    0.7592    0.0000 C   0  0  0  0  0  0  0  0  0  0  0  0
    0.4999   -0.1173    0.0000 N   0  3  0  0  0  0  0  0  0  0  0  0
   -0.3203   -0.0281    0.0000 C   0  0  0  0  0  0  0  0  0  0  0  0
    1.0605   -0.5572    0.0000 C   0  0  0  0  0  0  0  0  0  0  0  0
    0.7400   -1.2658    0.0000 C   0  0  0  0  0  0  0  0  0  0  0  0
    0.1197   -1.6427    0.0000 C   0  0  0  0  0  0  0  0  0  0  0  0
    0.6396   -0.9304    0.0000 C   0  0  2  0  0  0  0  0  0  0  0  0
    1.6113   -0.9304    0.0000 C   0  0  0  0  0  0  0  0  0  0  0  0
    2.1275   -1.3591    0.0000 C   0  0  2  0  0  0  0  0  0  0  0  0
    1.9893   -0.5417    0.0000 C   0  0  0  0  0  0  0  0  0  0  0  0
    2.5393   -2.0740    0.0000 O   0  0  0  0  0  0  0  0  0  0  0  0
    2.1261   -2.7880    0.0000 C   0  0  0  0  0  0  0  0  0  0  0  0
    1.3011   -2.7872    0.0000 O   0  0  0  0  0  0  0  0  0  0  0  0
    2.5379   -3.5029    0.0000 C   0  0  0  0  0  0  0  0  0  0  0  0
    3.3629   -3.5037    0.0000 C   0  0  0  0  0  0  0  0  0  0  0  0
    3.7747   -4.2186    0.0000 O   0  0  0  0  0  0  0  0  0  0  0  0
    2.1247   -4.2170    0.0000 C   0  0  0  0  0  0  0  0  0  0  0  0
    2.5365   -4.9319    0.0000 C   0  0  0  0  0  0  0  0  0  0  0  0
    2.1233   -5.6459    0.0000 C   0  0  0  0  0  0  0  0  0  0  0  0
    1.2983   -5.6451    0.0000 C   0  0  0  0  0  0  0  0  0  0  0  0
    0.8865   -4.9302    0.0000 C   0  0  0  0  0  0  0  0  0  0  0  0
    1.2997   -4.2162    0.0000 C   0  0  0  0  0  0  0  0  0  0  0  0
  1  2  1  0  0  0  0
  2  3  1  0  0  0  0
  2  4  1  0  0  0  0
  4  5  1  0  0  0  0
  4  6  1  0  0  0  0
  6  7  1  0  0  0  0
  7  8  1  0  0  0  0
  8  9  1  0  0  0  0
  4  9  1  0  0  0  0
  9 10  1  1  0  0  0
 10 11  1  0  0  0  0
 11 12  1  0  0  0  0
  6 12  1  0  0  0  0
 11 13  1  6  0  0  0
 13 14  1  0  0  0  0
 14 15  2  0  0  0  0
 14 16  1  0  0  0  0
 16 17  1  0  0  0  0
 17 18  1  0  0  0  0
 16 19  1  0  0  0  0
 19 20  4  0  0  0  0
 20 21  4  0  0  0  0
 21 22  4  0  0  0  0
 22 23  4  0  0  0  0
 23 24  4  0  0  0  0
 19 24  4  0  0  0  0
M  CHG  1   4   1
M  END

> <ChembankId>
3045140

> <SMILES>
CC(C)[N+]1(C)C2CC[C@@H]1C[C@H](C2)OC(=O)C(CO)c3ccccc3

> <InChI>
1/C20H30NO3/c1-14(2)21(3)16-9-10-17(21)12-18(11-16)24-20(23)19(13-22)15-7-5-4-6-8-15/h4-8,14,16-19,22H,9-13H2,1-3H3/q+1

$$$$
858
  Marvin  11101114192D          

 17 18  0  0  0  0            999 V2000
   -0.7145    1.2375    0.0000 O   0  0  0  0  0  0  0  0  0  0  0  0
    0.0000    0.8250    0.0000 C   0  0  0  0  0  0  0  0  0  0  0  0
    0.0000    0.0000    0.0000 C   0  0  0  0  0  0  0  0  0  0  0  0
   -0.7145   -0.4125    0.0000 O   0  0  0  0  0  0  0  0  0  0  0  0
    0.7145   -0.4125    0.0000 C   0  0  0  0  0  0  0  0  0  0  0  0
    0.7145   -1.2375    0.0000 N   0  0  0  0  0  0  0  0  0  0  0  0
    1.4289   -1.6500    0.0000 C   0  0  0  0  0  0  0  0  0  0  0  0
    1.4289   -2.4750    0.0000 C   0  0  0  0  0  0  0  0  0  0  0  0
    0.7145   -2.8875    0.0000 N   0  0  0  0  0  0  0  0  0  0  0  0
    0.0000   -2.4750    0.0000 C   0  0  0  0  0  0  0  0  0  0  0  0
    0.0000   -1.6500    0.0000 C   0  0  0  0  0  0  0  0  0  0  0  0
    0.7145   -3.7125    0.0000 C   0  0  0  0  0  0  0  0  0  0  0  0
    1.4289   -4.1250    0.0000 C   0  0  0  0  0  0  0  0  0  0  0  0
    1.4289   -4.9500    0.0000 C   0  0  0  0  0  0  0  0  0  0  0  0
    0.7145   -5.3625    0.0000 C   0  0  0  0  0  0  0  0  0  0  0  0
   -0.0000   -4.9500    0.0000 C   0  0  0  0  0  0  0  0  0  0  0  0
    0.0000   -4.1250    0.0000 C   0  0  0  0  0  0  0  0  0  0  0  0
  1  2  1  0  0  0  0
  2  3  1  0  0  0  0
  3  4  1  0  0  0  0
  3  5  1  0  0  0  0
  5  6  1  0  0  0  0
  6  7  1  0  0  0  0
  7  8  1  0  0  0  0
  8  9  1  0  0  0  0
  9 10  1  0  0  0  0
 10 11  1  0  0  0  0
  6 11  1  0  0  0  0
  9 12  1  0  0  0  0
 12 13  4  0  0  0  0
 13 14  4  0  0  0  0
 14 15  4  0  0  0  0
 15 16  4  0  0  0  0
 16 17  4  0  0  0  0
 12 17  4  0  0  0  0
M  END

> <ChembankId>
858

> <SMILES>
OCC(O)CN1CCN(CC1)c2ccccc2

> <InChI>
1/C13H20N2O2/c16-11-13(17)10-14-6-8-15(9-7-14)12-4-2-1-3-5-12/h1-5,13,16-17H,6-11H2

$$$$
861
  Marvin  11101114192D          

 14 14  0  0  1  0            999 V2000
    2.4614   -0.4747    0.0000 C   0  0  0  0  0  0  0  0  0  0  0  0
    2.6329    0.3323    0.0000 C   0  0  2  0  0  0  0  0  0  0  0  0
    3.4175    0.5872    0.0000 C   0  0  0  0  0  0  0  0  0  0  0  0
    4.0306    0.0352    0.0000 S   0  0  0  0  0  0  0  0  0  0  0  0
    2.0198    0.8843    0.0000 C   0  0  0  0  0  0  0  0  0  0  0  0
    2.1913    1.6913    0.0000 O   0  0  0  0  0  0  0  0  0  0  0  0
    1.2352    0.6294    0.0000 N   0  0  0  0  0  0  0  0  0  0  0  0
    0.9803   -0.1553    0.0000 C   0  0  0  0  0  0  0  0  0  0  0  0
    0.1553   -0.1553    0.0000 C   0  0  0  0  0  0  0  0  0  0  0  0
   -0.0997    0.6294    0.0000 C   0  0  0  0  0  0  0  0  0  0  0  0
    0.5678    1.1143    0.0000 C   0  0  1  0  0  0  0  0  0  0  0  0
    0.5678    1.9393    0.0000 C   0  0  0  0  0  0  0  0  0  0  0  0
   -0.1467    2.3518    0.0000 O   0  0  0  0  0  0  0  0  0  0  0  0
    1.2822    2.3518    0.0000 O   0  0  0  0  0  0  0  0  0  0  0  0
  2  1  1  1  0  0  0
  2  3  1  0  0  0  0
  3  4  1  0  0  0  0
  2  5  1  0  0  0  0
  5  6  2  0  0  0  0
  5  7  1  0  0  0  0
  7  8  1  0  0  0  0
  8  9  1  0  0  0  0
  9 10  1  0  0  0  0
 10 11  1  0  0  0  0
  7 11  1  0  0  0  0
 11 12  1  1  0  0  0
 12 13  2  0  0  0  0
 12 14  1  0  0  0  0
M  END

> <ChembankId>
861

> <SMILES>
C[C@H](CS)C(=O)N1CCC[C@H]1C(=O)O

> <InChI>
1/C9H15NO3S/c1-6(5-14)8(11)10-4-2-3-7(10)9(12)13/h6-7,14H,2-5H2,1H3,(H,12,13)

$$$$
865
  Marvin  11101114192D          

 19 20  0  0  0  0            999 V2000
    2.2501    6.0027    0.0000 C   0  0  0  0  0  0  0  0  0  0  0  0
    1.5356    5.5902    0.0000 C   0  0  0  0  0  0  0  0  0  0  0  0
    1.5356    4.7652    0.0000 C   0  0  0  0  0  0  0  0  0  0  0  0
    0.8212    4.3527    0.0000 C   0  0  0  0  0  0  0  0  0  0  0  0
    0.1067    4.7652    0.0000 C   0  0  0  0  0  0  0  0  0  0  0  0
    0.1067    5.5902    0.0000 C   0  0  0  0  0  0  0  0  0  0  0  0
    0.8212    6.0027    0.0000 C   0  0  0  0  0  0  0  0  0  0  0  0
   -0.6078    4.3527    0.0000 C   0  0  0  0  0  0  0  0  0  0  0  0
   -1.3222    4.7652    0.0000 O   0  0  0  0  0  0  0  0  0  0  0  0
   -0.6078    3.5277    0.0000 C   0  0  0  0  0  0  0  0  0  0  0  0
    0.0597    3.0428    0.0000 C   0  0  0  0  0  0  0  0  0  0  0  0
   -0.1953    2.2581    0.0000 C   0  0  0  0  0  0  0  0  0  0  0  0
   -1.0203    2.2581    0.0000 C   0  0  0  0  0  0  0  0  0  0  0  0
   -1.5052    1.5907    0.0000 C   0  0  0  0  0  0  0  0  0  0  0  0
   -2.3257    1.6769    0.0000 C   0  0  0  0  0  0  0  0  0  0  0  0
   -2.8106    1.0095    0.0000 O   0  0  0  0  0  0  0  0  0  0  0  0
   -2.6612    2.4306    0.0000 O   0  0  0  0  0  0  0  0  0  0  0  0
   -1.2752    3.0428    0.0000 N   0  0  0  0  0  0  0  0  0  0  0  0
   -2.0598    3.2977    0.0000 C   0  0  0  0  0  0  0  0  0  0  0  0
  1  2  1  0  0  0  0
  2  3  4  0  0  0  0
  3  4  4  0  0  0  0
  4  5  4  0  0  0  0
  5  6  4  0  0  0  0
  6  7  4  0  0  0  0
  2  7  4  0  0  0  0
  5  8  1  0  0  0  0
  8  9  2  0  0  0  0
  8 10  1  0  0  0  0
 10 11  4  0  0  0  0
 11 12  4  0  0  0  0
 12 13  4  0  0  0  0
 13 14  1  0  0  0  0
 14 15  1  0  0  0  0
 15 16  2  0  0  0  0
 15 17  1  0  0  0  0
 13 18  4  0  0  0  0
 10 18  4  0  0  0  0
 18 19  1  0  0  0  0
M  END

> <ChembankId>
865

> <SMILES>
Cc1ccc(cc1)C(=O)c2ccc(CC(=O)O)n2C

> <InChI>
1/C15H15NO3/c1-10-3-5-11(6-4-10)15(19)13-8-7-12(16(13)2)9-14(17)18/h3-8H,9H2,1-2H3,(H,17,18)

$$$$
867
  Marvin  11101114192D          

 17 18  0  0  0  0            999 V2000
    2.8579   -0.8250    0.0000 N   0  0  0  0  0  0  0  0  0  0  0  0
    2.8579   -1.6500    0.0000 C   0  0  0  0  0  0  0  0  0  0  0  0
    3.5724   -2.0625    0.0000 C   0  0  0  0  0  0  0  0  0  0  0  0
    3.5724   -2.8875    0.0000 C   0  0  0  0  0  0  0  0  0  0  0  0
    2.8579   -3.3000    0.0000 C   0  0  0  0  0  0  0  0  0  0  0  0
    2.1434   -2.8875    0.0000 C   0  0  0  0  0  0  0  0  0  0  0  0
    2.1434   -2.0625    0.0000 C   0  0  0  0  0  0  0  0  0  0  0  0
    2.8579   -4.1250    0.0000 S   0  0  0  0  0  0  0  0  0  0  0  0
    2.0329   -4.1250    0.0000 O   0  0  0  0  0  0  0  0  0  0  0  0
    3.6829   -4.1250    0.0000 O   0  0  0  0  0  0  0  0  0  0  0  0
    2.8579   -4.9500    0.0000 N   0  0  0  0  0  0  0  0  0  0  0  0
    2.1434   -5.3625    0.0000 C   0  0  0  0  0  0  0  0  0  0  0  0
    2.1434   -6.1875    0.0000 C   0  0  0  0  0  0  0  0  0  0  0  0
    1.4289   -6.6000    0.0000 C   0  0  0  0  0  0  0  0  0  0  0  0
    0.7145   -6.1875    0.0000 C   0  0  0  0  0  0  0  0  0  0  0  0
    0.7145   -5.3625    0.0000 C   0  0  0  0  0  0  0  0  0  0  0  0
    1.4289   -4.9500    0.0000 N   0  0  0  0  0  0  0  0  0  0  0  0
  1  2  1  0  0  0  0
  2  3  4  0  0  0  0
  3  4  4  0  0  0  0
  4  5  4  0  0  0  0
  5  6  4  0  0  0  0
  6  7  4  0  0  0  0
  2  7  4  0  0  0  0
  5  8  1  0  0  0  0
  8  9  2  0  0  0  0
  8 10  2  0  0  0  0
  8 11  1  0  0  0  0
 11 12  1  0  0  0  0
 12 13  4  0  0  0  0
 13 14  4  0  0  0  0
 14 15  4  0  0  0  0
 15 16  4  0  0  0  0
 16 17  4  0  0  0  0
 12 17  4  0  0  0  0
M  END

> <ChembankId>
867

> <SMILES>
Nc1ccc(cc1)S(=O)(=O)Nc2ccccn2

> <InChI>
1/C11H11N3O2S/c12-9-4-6-10(7-5-9)17(15,16)14-11-3-1-2-8-13-11/h1-8H,12H2,(H,13,14)

$$$$
869
  Marvin  11101114192D          

 10 10  0  0  0  0            999 V2000
    1.9268    1.5559    0.0000 C   0  0  0  0  0  0  0  0  0  0  0  0
    1.1198    1.7274    0.0000 C   0  0  0  0  0  0  0  0  0  0  0  0
    0.5678    1.1143    0.0000 C   0  0  0  0  0  0  0  0  0  0  0  0
    0.0157    1.7274    0.0000 C   0  0  0  0  0  0  0  0  0  0  0  0
    1.2352    0.6294    0.0000 C   0  0  0  0  0  0  0  0  0  0  0  0
    0.9803   -0.1553    0.0000 C   0  0  0  0  0  0  0  0  0  0  0  0
    1.4652   -0.8227    0.0000 O   0  0  0  0  0  0  0  0  0  0  0  0
    0.1553   -0.1553    0.0000 N   0  0  0  0  0  0  0  0  0  0  0  0
   -0.0997    0.6294    0.0000 C   0  0  0  0  0  0  0  0  0  0  0  0
   -0.8843    0.8843    0.0000 O   0  0  0  0  0  0  0  0  0  0  0  0
  1  2  1  0  0  0  0
  2  3  1  0  0  0  0
  3  4  1  0  0  0  0
  3  5  1  0  0  0  0
  5  6  1  0  0  0  0
  6  7  2  0  0  0  0
  6  8  1  0  0  0  0
  8  9  1  0  0  0  0
  3  9  1  0  0  0  0
  9 10  2  0  0  0  0
M  END

> <ChembankId>
869

> <SMILES>
CCC1(C)CC(=O)NC1=O

> <InChI>
1/C7H11NO2/c1-3-7(2)4-5(9)8-6(7)10/h3-4H2,1-2H3,(H,8,9,10)

$$$$
871
  Marvin  11101114192D          

 24 26  0  0  0  0            999 V2000
   -1.4289    0.8250    0.0000 Cl  0  0  0  0  0  0  0  0  0  0  0  0
   -0.7145    0.4125    0.0000 C   0  0  0  0  0  0  0  0  0  0  0  0
    0.0000    0.8250    0.0000 C   0  0  0  0  0  0  0  0  0  0  0  0
    0.7145    0.4125    0.0000 C   0  0  0  0  0  0  0  0  0  0  0  0
    0.7145   -0.4125    0.0000 C   0  0  0  0  0  0  0  0  0  0  0  0
    1.4289   -0.8250    0.0000 C   0  0  0  0  0  0  0  0  0  0  0  0
    1.4289   -1.6500    0.0000 S   0  0  0  0  0  0  0  0  0  0  0  0
    2.1434   -2.0625    0.0000 C   0  0  0  0  0  0  0  0  0  0  0  0
    2.8579   -1.6500    0.0000 C   0  0  0  0  0  0  0  0  0  0  0  0
    3.5724   -2.0625    0.0000 N   0  0  0  0  0  0  0  0  0  0  0  0
    4.3260   -1.7269    0.0000 C   0  0  0  0  0  0  0  0  0  0  0  0
    4.8781   -2.3400    0.0000 C   0  0  0  0  0  0  0  0  0  0  0  0
    4.4656   -3.0545    0.0000 N   0  0  0  0  0  0  0  0  0  0  0  0
    3.6586   -2.8830    0.0000 C   0  0  0  0  0  0  0  0  0  0  0  0
    2.1434   -2.8875    0.0000 C   0  0  0  0  0  0  0  0  0  0  0  0
    2.8579   -3.3000    0.0000 C   0  0  0  0  0  0  0  0  0  0  0  0
    2.8579   -4.1250    0.0000 C   0  0  0  0  0  0  0  0  0  0  0  0
    2.1434   -4.5375    0.0000 C   0  0  0  0  0  0  0  0  0  0  0  0
    2.1434   -5.3625    0.0000 Cl  0  0  0  0  0  0  0  0  0  0  0  0
    1.4289   -4.1250    0.0000 C   0  0  0  0  0  0  0  0  0  0  0  0
    1.4289   -3.3000    0.0000 C   0  0  0  0  0  0  0  0  0  0  0  0
    0.7145   -2.8875    0.0000 Cl  0  0  0  0  0  0  0  0  0  0  0  0
    0.0000   -0.8250    0.0000 C   0  0  0  0  0  0  0  0  0  0  0  0
   -0.7145   -0.4125    0.0000 C   0  0  0  0  0  0  0  0  0  0  0  0
  1  2  1  0  0  0  0
  2  3  4  0  0  0  0
  3  4  4  0  0  0  0
  4  5  4  0  0  0  0
  5  6  1  0  0  0  0
  6  7  1  0  0  0  0
  7  8  1  0  0  0  0
  8  9  1  0  0  0  0
  9 10  1  0  0  0  0
 10 11  4  0  0  0  0
 11 12  4  0  0  0  0
 12 13  4  0  0  0  0
 13 14  4  0  0  0  0
 10 14  4  0  0  0  0
  8 15  1  0  0  0  0
 15 16  4  0  0  0  0
 16 17  4  0  0  0  0
 17 18  4  0  0  0  0
 18 19  1  0  0  0  0
 18 20  4  0  0  0  0
 20 21  4  0  0  0  0
 15 21  4  0  0  0  0
 21 22  1  0  0  0  0
  5 23  4  0  0  0  0
 23 24  4  0  0  0  0
  2 24  4  0  0  0  0
M  END

> <ChembankId>
871

> <SMILES>
Clc1ccc(CSC(Cn2ccnc2)c3ccc(Cl)cc3Cl)cc1

> <InChI>
1/C18H15Cl3N2S/c19-14-3-1-13(2-4-14)11-24-18(10-23-8-7-22-12-23)16-6-5-15(20)9-17(16)21/h1-9,12,18H,10-11H2

$$$$
873
  Marvin  11101114192D          

 34 36  0  0  1  0            999 V2000
  -12.1460   -0.4125    0.0000 N   0  0  0  0  0  0  0  0  0  0  0  0
  -11.4315   -0.0000    0.0000 C   0  0  0  0  0  0  0  0  0  0  0  0
  -11.4315    0.8250    0.0000 N   0  0  0  0  0  0  0  0  0  0  0  0
  -10.7171    1.2375    0.0000 C   0  0  0  0  0  0  0  0  0  0  0  0
  -10.7171    2.0625    0.0000 O   0  0  0  0  0  0  0  0  0  0  0  0
  -10.0026    0.8250    0.0000 C   0  0  0  0  0  0  0  0  0  0  0  0
   -9.2881    1.2375    0.0000 N   0  0  0  0  0  0  0  0  0  0  0  0
   -9.2881    2.0625    0.0000 C   0  0  0  0  0  0  0  0  0  0  0  0
   -8.5737    2.4750    0.0000 O   0  0  0  0  0  0  0  0  0  0  0  0
   -8.5737    0.8250    0.0000 C   0  0  0  0  0  0  0  0  0  0  0  0
   -7.8592    1.2375    0.0000 C   0  0  0  0  0  0  0  0  0  0  0  0
   -7.8592    2.0625    0.0000 N   0  0  0  0  0  0  0  0  0  0  0  0
   -7.1447    2.4750    0.0000 C   0  0  0  0  0  0  0  0  0  0  0  0
   -7.1447    3.3000    0.0000 C   0  0  0  0  0  0  0  0  0  0  0  0
   -6.4302    3.7125    0.0000 C   0  0  0  0  0  0  0  0  0  0  0  0
   -5.7158    3.3000    0.0000 C   0  0  0  0  0  0  0  0  0  0  0  0
   -5.7158    2.4750    0.0000 C   0  0  0  0  0  0  0  0  0  0  0  0
   -6.4302    2.0625    0.0000 C   0  0  0  0  0  0  0  0  0  0  0  0
   -5.0013    3.7125    0.0000 C   0  0  0  0  0  0  0  0  0  0  0  0
   -5.0013    4.5375    0.0000 O   0  0  0  0  0  0  0  0  0  0  0  0
   -4.2868    3.3000    0.0000 N   0  0  0  0  0  0  0  0  0  0  0  0
   -3.5724    3.7125    0.0000 C   0  0  1  0  0  0  0  0  0  0  0  0
   -2.8579    3.3000    0.0000 C   0  0  0  0  0  0  0  0  0  0  0  0
   -2.1434    3.7125    0.0000 C   0  0  0  0  0  0  0  0  0  0  0  0
   -1.4289    3.3000    0.0000 C   0  0  0  0  0  0  0  0  0  0  0  0
   -0.7145    3.7125    0.0000 O   0  0  0  0  0  0  0  0  0  0  0  0
   -1.4289    2.4750    0.0000 O   0  0  0  0  0  0  0  0  0  0  0  0
   -3.5724    4.5375    0.0000 C   0  0  0  0  0  0  0  0  0  0  0  0
   -2.8579    4.9500    0.0000 O   0  0  0  0  0  0  0  0  0  0  0  0
   -4.2868    4.9500    0.0000 O   0  0  0  0  0  0  0  0  0  0  0  0
   -8.5737   -0.0000    0.0000 C   0  0  0  0  0  0  0  0  0  0  0  0
   -9.2881   -0.4125    0.0000 N   0  0  0  0  0  0  0  0  0  0  0  0
  -10.0026   -0.0000    0.0000 C   0  0  0  0  0  0  0  0  0  0  0  0
  -10.7171   -0.4125    0.0000 N   0  0  0  0  0  0  0  0  0  0  0  0
  1  2  1  0  0  0  0
  2  3  4  0  0  0  0
  3  4  4  0  0  0  0
  4  5  2  0  0  0  0
  4  6  4  0  0  0  0
  6  7  1  0  0  0  0
  7  8  1  0  0  0  0
  8  9  2  0  0  0  0
  7 10  1  0  0  0  0
 10 11  1  0  0  0  0
 11 12  1  0  0  0  0
 12 13  1  0  0  0  0
 13 14  4  0  0  0  0
 14 15  4  0  0  0  0
 15 16  4  0  0  0  0
 16 17  4  0  0  0  0
 17 18  4  0  0  0  0
 13 18  4  0  0  0  0
 16 19  1  0  0  0  0
 19 20  2  0  0  0  0
 19 21  1  0  0  0  0
 22 21  1  6  0  0  0
 22 23  1  0  0  0  0
 23 24  1  0  0  0  0
 24 25  1  0  0  0  0
 25 26  2  0  0  0  0
 25 27  1  0  0  0  0
 22 28  1  0  0  0  0
 28 29  2  0  0  0  0
 28 30  1  0  0  0  0
 10 31  1  0  0  0  0
 31 32  1  0  0  0  0
 32 33  1  0  0  0  0
  6 33  4  0  0  0  0
 33 34  4  0  0  0  0
  2 34  4  0  0  0  0
M  STY  1   1 DAT
M  SAL   1  1  34
M  SDT   1 MRV_IMPLICIT_H                                        
M  SDD   1     0.0000    0.0000    DR    ALL  0       0  
M  SED   1 IMPL_H1
M  END

> <ChembankId>
873

> <SMILES>
Nc1nc(=O)c2N(C=O)C(CNc3ccc(cc3)C(=O)N[C@@H](CCC(=O)O)C(=O)O)CNc2[nH]1

> <InChI>
1/C20H23N7O7/c21-20-25-16-15(18(32)26-20)27(9-28)12(8-23-16)7-22-11-3-1-10(2-4-11)17(31)24-13(19(33)34)5-6-14(29)30/h1-4,9,12-13,22H,5-8H2,(H,24,31)(H,29,30)(H,33,34)(H4,21,23,25,26,32)

$$$$
875
  Marvin  11101114192D          

 17 18  0  0  0  0            999 V2000
    3.0328   -0.7239    0.0000 O   0  5  0  0  0  0  0  0  0  0  0  0
    2.3183   -1.1364    0.0000 N   0  3  0  0  0  0  0  0  0  0  0  0
    1.6039   -0.7239    0.0000 O   0  0  0  0  0  0  0  0  0  0  0  0
    2.3183   -1.9614    0.0000 C   0  0  0  0  0  0  0  0  0  0  0  0
    2.9858   -2.4463    0.0000 C   0  0  0  0  0  0  0  0  0  0  0  0
    2.7308   -3.2309    0.0000 C   0  0  0  0  0  0  0  0  0  0  0  0
    1.9058   -3.2309    0.0000 C   0  0  0  0  0  0  0  0  0  0  0  0
    1.4209   -3.8983    0.0000 C   0  0  0  0  0  0  0  0  0  0  0  0
    1.7565   -4.6520    0.0000 N   0  0  0  0  0  0  0  0  0  0  0  0
    1.2715   -5.3195    0.0000 N   0  0  0  0  0  0  0  0  0  0  0  0
    1.5265   -6.1041    0.0000 C   0  0  0  0  0  0  0  0  0  0  0  0
    0.8590   -6.5890    0.0000 C   0  0  0  0  0  0  0  0  0  0  0  0
    0.8590   -7.4140    0.0000 O   0  0  0  0  0  0  0  0  0  0  0  0
    0.1916   -6.1041    0.0000 N   0  0  0  0  0  0  0  0  0  0  0  0
    0.4465   -5.3195    0.0000 C   0  0  0  0  0  0  0  0  0  0  0  0
   -0.0384   -4.6520    0.0000 O   0  0  0  0  0  0  0  0  0  0  0  0
    1.6509   -2.4463    0.0000 O   0  0  0  0  0  0  0  0  0  0  0  0
  1  2  1  0  0  0  0
  2  3  2  0  0  0  0
  2  4  1  0  0  0  0
  4  5  4  0  0  0  0
  5  6  4  0  0  0  0
  6  7  4  0  0  0  0
  8  7  1  4  0  0  0
  8  9  2  0  0  0  0
  9 10  1  0  0  0  0
 10 11  1  0  0  0  0
 11 12  1  0  0  0  0
 12 13  2  0  0  0  0
 12 14  1  0  0  0  0
 14 15  1  0  0  0  0
 10 15  1  0  0  0  0
 15 16  2  0  0  0  0
  7 17  4  0  0  0  0
  4 17  4  0  0  0  0
M  CHG  2   1  -1   2   1
M  END

> <ChembankId>
875

> <SMILES>
[O-][N+](=O)c1ccc(C=NN2CC(=O)NC2=O)o1

> <InChI>
1/C8H6N4O5/c13-6-4-11(8(14)10-6)9-3-5-1-2-7(17-5)12(15)16/h1-3H,4H2,(H,10,13,14)

$$$$
876
  Marvin  11101114192D          

 33 36  0  0  1  0            999 V2000
    5.7158    2.4750    0.0000 C   0  0  0  0  0  0  0  0  0  0  0  0
    5.0013    2.0625    0.0000 N   0  0  0  0  0  0  0  0  0  0  0  0
    4.2868    2.4750    0.0000 C   0  0  0  0  0  0  0  0  0  0  0  0
    5.0013    1.2375    0.0000 C   0  0  1  0  0  0  0  0  0  0  0  0
    4.2868    0.8250    0.0000 C   0  0  0  0  0  0  0  0  0  0  0  0
    3.5724    1.2375    0.0000 C   0  0  1  0  0  0  0  0  0  0  0  0
    3.5724    2.0625    0.0000 O   0  0  0  0  0  0  0  0  0  0  0  0
    2.8579    0.8250    0.0000 C   0  0  1  0  0  0  0  0  0  0  0  0
    2.8579    0.0000    0.0000 C   0  0  0  0  0  0  0  0  0  0  0  0
    3.5724   -0.4125    0.0000 C   0  0  0  0  0  0  0  0  0  0  0  0
    3.5724   -1.2375    0.0000 O   0  0  0  0  0  0  0  0  0  0  0  0
    4.2868    0.0000    0.0000 C   0  0  1  0  0  0  0  0  0  0  0  0
    4.2868   -0.8250    0.0000 O   0  0  0  0  0  0  0  0  0  0  0  0
    5.0013   -0.4125    0.0000 C   0  0  0  0  0  0  0  0  0  0  0  0
    5.0013   -1.2375    0.0000 O   0  0  0  0  0  0  0  0  0  0  0  0
    5.7158   -0.0000    0.0000 C   0  0  0  0  0  0  0  0  0  0  0  0
    5.7158    0.8250    0.0000 C   0  0  0  0  0  0  0  0  0  0  0  0
    6.4302    1.2375    0.0000 O   0  0  0  0  0  0  0  0  0  0  0  0
    6.4302   -0.4125    0.0000 C   0  0  0  0  0  0  0  0  0  0  0  0
    7.1447   -0.0000    0.0000 O   0  0  0  0  0  0  0  0  0  0  0  0
    6.4302   -1.2375    0.0000 N   0  0  0  0  0  0  0  0  0  0  0  0
    2.1434   -0.4125    0.0000 C   0  0  0  0  0  0  0  0  0  0  0  0
    2.1434   -1.2375    0.0000 O   0  0  0  0  0  0  0  0  0  0  0  0
    1.4289   -0.0000    0.0000 C   0  0  0  0  0  0  0  0  0  0  0  0
    0.7145   -0.4125    0.0000 C   0  0  0  0  0  0  0  0  0  0  0  0
    0.7145   -1.2375    0.0000 O   0  0  0  0  0  0  0  0  0  0  0  0
   -0.0000    0.0000    0.0000 C   0  0  0  0  0  0  0  0  0  0  0  0
    0.0000    0.8250    0.0000 C   0  0  0  0  0  0  0  0  0  0  0  0
    0.7145    1.2375    0.0000 C   0  0  0  0  0  0  0  0  0  0  0  0
    1.4289    0.8250    0.0000 C   0  0  0  0  0  0  0  0  0  0  0  0
    2.1434    1.2375    0.0000 C   0  0  2  0  0  0  0  0  0  0  0  0
    1.7561    1.9659    0.0000 C   0  0  0  0  0  0  0  0  0  0  0  0
    2.5307    1.9659    0.0000 O   0  0  0  0  0  0  0  0  0  0  0  0
  1  2  1  0  0  0  0
  2  3  1  0  0  0  0
  4  2  1  6  0  0  0
  4  5  1  0  0  0  0
  5  6  1  0  0  0  0
  6  7  1  6  0  0  0
  6  8  1  0  0  0  0
  8  9  1  1  0  0  0
  9 10  2  0  0  0  0
 10 11  1  0  0  0  0
 10 12  1  0  0  0  0
  5 12  1  0  0  0  0
 12 13  1  6  0  0  0
 12 14  1  0  0  0  0
 14 15  2  0  0  0  0
 14 16  1  0  0  0  0
 16 17  2  0  0  0  0
  4 17  1  0  0  0  0
 17 18  1  0  0  0  0
 16 19  1  0  0  0  0
 19 20  2  0  0  0  0
 19 21  1  0  0  0  0
  9 22  1  0  0  0  0
 22 23  2  0  0  0  0
 22 24  1  0  0  0  0
 24 25  4  0  0  0  0
 25 26  1  0  0  0  0
 25 27  4  0  0  0  0
 27 28  4  0  0  0  0
 28 29  4  0  0  0  0
 29 30  4  0  0  0  0
 24 30  4  0  0  0  0
 30 31  1  0  0  0  0
  8 31  1  0  0  0  0
 31 32  1  6  0  0  0
 31 33  1  1  0  0  0
M  END

> <ChembankId>
876

> <SMILES>
CN(C)[C@H]1[C@@H]2[C@@H](O)[C@H]3C(=C(O)[C@]2(O)C(=O)C(=C1O)C(=O)N)C(=O)c4c(O)cccc4[C@@]3(C)O

> <InChI>
1/C22H24N2O9/c1-21(32)7-5-4-6-8(25)9(7)15(26)10-12(21)17(28)13-14(24(2)3)16(27)11(20(23)31)19(30)22(13,33)18(10)29/h4-6,12-14,17,25,27-29,32-33H,1-3H3,(H2,23,31)

$$$$
3263
  Marvin  11101114192D          

 12 12  0  0  0  0            999 V2000
   -0.7145    3.7125    0.0000 C   0  0  0  0  0  0  0  0  0  0  0  0
   -0.7145    2.8875    0.0000 N   0  0  0  0  0  0  0  0  0  0  0  0
   -0.0000    2.4750    0.0000 C   0  0  0  0  0  0  0  0  0  0  0  0
   -0.4125    1.7605    0.0000 C   0  0  0  0  0  0  0  0  0  0  0  0
    0.4125    3.1895    0.0000 C   0  0  0  0  0  0  0  0  0  0  0  0
    0.7145    2.0625    0.0000 C   0  0  0  0  0  0  0  0  0  0  0  0
    0.7145    1.2375    0.0000 C   0  0  0  0  0  0  0  0  0  0  0  0
    1.4289    0.8250    0.0000 C   0  0  0  0  0  0  0  0  0  0  0  0
    1.4289    0.0000    0.0000 C   0  0  0  0  0  0  0  0  0  0  0  0
    0.7145   -0.4125    0.0000 C   0  0  0  0  0  0  0  0  0  0  0  0
    0.0000   -0.0000    0.0000 C   0  0  0  0  0  0  0  0  0  0  0  0
   -0.0000    0.8250    0.0000 C   0  0  0  0  0  0  0  0  0  0  0  0
  1  2  1  0  0  0  0
  2  3  1  0  0  0  0
  3  4  1  0  0  0  0
  3  5  1  0  0  0  0
  3  6  1  0  0  0  0
  6  7  1  0  0  0  0
  7  8  4  0  0  0  0
  8  9  4  0  0  0  0
  9 10  4  0  0  0  0
 10 11  4  0  0  0  0
 11 12  4  0  0  0  0
  7 12  4  0  0  0  0
M  END

> <ChembankId>
3263

> <SMILES>
CNC(C)(C)Cc1ccccc1

> <InChI>
1/C11H17N/c1-11(2,12-3)9-10-7-5-4-6-8-10/h4-8,12H,9H2,1-3H3

$$$$
883
  Marvin  11101114192D          

 25 27  0  0  1  0            999 V2000
    2.4804   -1.8402    0.0000 C   0  0  0  0  0  0  0  0  0  0  0  0
    2.4804   -2.6652    0.0000 C   0  0  0  0  0  0  0  0  0  0  0  0
    1.7659   -3.0777    0.0000 O   0  0  0  0  0  0  0  0  0  0  0  0
    1.0514   -2.6652    0.0000 C   0  0  0  0  0  0  0  0  0  0  0  0
    0.3370   -3.0777    0.0000 C   0  0  0  0  0  0  0  0  0  0  0  0
   -0.3775   -2.6652    0.0000 C   0  0  0  0  0  0  0  0  0  0  0  0
   -0.3775   -1.8402    0.0000 C   0  0  0  0  0  0  0  0  0  0  0  0
    0.3370   -1.4277    0.0000 C   0  0  0  0  0  0  0  0  0  0  0  0
    1.0514   -1.8402    0.0000 C   0  0  0  0  0  0  0  0  0  0  0  0
    3.1949   -3.0777    0.0000 C   0  0  0  0  0  0  0  0  0  0  0  0
    3.1949   -3.9027    0.0000 O   0  0  0  0  0  0  0  0  0  0  0  0
    3.9093   -2.6652    0.0000 N   0  0  0  0  0  0  0  0  0  0  0  0
    4.6238   -3.0777    0.0000 C   0  0  1  0  0  0  0  0  0  0  0  0
    5.4207   -2.8642    0.0000 C   0  0  1  0  0  0  0  0  0  0  0  0
    6.1126   -2.4148    0.0000 S   0  0  0  0  0  0  0  0  0  0  0  0
    6.7537   -2.9340    0.0000 C   0  0  0  0  0  0  0  0  0  0  0  0
    7.2031   -2.2421    0.0000 C   0  0  0  0  0  0  0  0  0  0  0  0
    7.4888   -3.3086    0.0000 C   0  0  0  0  0  0  0  0  0  0  0  0
    6.4581   -3.7042    0.0000 C   0  0  1  0  0  0  0  0  0  0  0  0
    5.6342   -3.6611    0.0000 N   0  0  0  0  0  0  0  0  0  0  0  0
    4.8373   -3.8746    0.0000 C   0  0  0  0  0  0  0  0  0  0  0  0
    4.4248   -4.5891    0.0000 O   0  0  0  0  0  0  0  0  0  0  0  0
    6.9074   -4.3961    0.0000 C   0  0  0  0  0  0  0  0  0  0  0  0
    7.7313   -4.3530    0.0000 O   0  0  0  0  0  0  0  0  0  0  0  0
    6.5329   -5.1312    0.0000 O   0  0  0  0  0  0  0  0  0  0  0  0
  1  2  1  0  0  0  0
  2  3  1  0  0  0  0
  3  4  1  0  0  0  0
  4  5  4  0  0  0  0
  5  6  4  0  0  0  0
  6  7  4  0  0  0  0
  7  8  4  0  0  0  0
  8  9  4  0  0  0  0
  4  9  4  0  0  0  0
  2 10  1  0  0  0  0
 10 11  2  0  0  0  0
 10 12  1  0  0  0  0
 13 12  1  1  0  0  0
 13 14  1  0  0  0  0
 14 15  1  0  0  0  0
 15 16  1  0  0  0  0
 16 17  1  0  0  0  0
 16 18  1  0  0  0  0
 16 19  1  0  0  0  0
 19 20  1  0  0  0  0
 14 20  1  1  0  0  0
 20 21  1  0  0  0  0
 13 21  1  0  0  0  0
 21 22  2  0  0  0  0
 19 23  1  6  0  0  0
 23 24  2  0  0  0  0
 23 25  1  0  0  0  0
M  END

> <ChembankId>
883

> <SMILES>
CC(Oc1ccccc1)C(=O)N[C@H]2[C@H]3SC(C)(C)[C@@H](N3C2=O)C(=O)O

> <InChI>
1/C17H20N2O5S/c1-9(24-10-7-5-4-6-8-10)13(20)18-11-14(21)19-12(16(22)23)17(2,3)25-15(11)19/h4-9,11-12,15H,1-3H3,(H,18,20)(H,22,23)

$$$$
884
  Marvin  11101114192D          

 18 19  0  0  0  0            999 V2000
   -2.1434   -1.2375    0.0000 C   0  0  0  0  0  0  0  0  0  0  0  0
   -1.4289   -1.6500    0.0000 N   0  0  0  0  0  0  0  0  0  0  0  0
   -1.4289   -2.4750    0.0000 C   0  0  0  0  0  0  0  0  0  0  0  0
   -0.7145   -1.2375    0.0000 C   0  0  0  0  0  0  0  0  0  0  0  0
    0.0000   -1.6500    0.0000 C   0  0  0  0  0  0  0  0  0  0  0  0
    0.7145   -1.2375    0.0000 C   0  0  0  0  0  0  0  0  0  0  0  0
    1.4289   -1.6500    0.0000 C   0  0  0  0  0  0  0  0  0  0  0  0
    2.1434   -1.2375    0.0000 C   0  0  0  0  0  0  0  0  0  0  0  0
    2.8579   -1.6500    0.0000 C   0  0  0  0  0  0  0  0  0  0  0  0
    2.8579   -2.4750    0.0000 C   0  0  0  0  0  0  0  0  0  0  0  0
    2.1434   -2.8875    0.0000 C   0  0  0  0  0  0  0  0  0  0  0  0
    1.4289   -2.4750    0.0000 C   0  0  0  0  0  0  0  0  0  0  0  0
    0.7145   -0.4125    0.0000 C   0  0  0  0  0  0  0  0  0  0  0  0
    0.0000    0.0000    0.0000 C   0  0  0  0  0  0  0  0  0  0  0  0
    0.0000    0.8250    0.0000 C   0  0  0  0  0  0  0  0  0  0  0  0
    0.7145    1.2375    0.0000 C   0  0  0  0  0  0  0  0  0  0  0  0
    1.4289    0.8250    0.0000 C   0  0  0  0  0  0  0  0  0  0  0  0
    1.4289    0.0000    0.0000 N   0  0  0  0  0  0  0  0  0  0  0  0
  1  2  1  0  0  0  0
  2  3  1  0  0  0  0
  2  4  1  0  0  0  0
  4  5  1  0  0  0  0
  5  6  1  0  0  0  0
  6  7  1  0  0  0  0
  7  8  4  0  0  0  0
  8  9  4  0  0  0  0
  9 10  4  0  0  0  0
 10 11  4  0  0  0  0
 11 12  4  0  0  0  0
  7 12  4  0  0  0  0
  6 13  1  0  0  0  0
 13 14  4  0  0  0  0
 14 15  4  0  0  0  0
 15 16  4  0  0  0  0
 16 17  4  0  0  0  0
 17 18  4  0  0  0  0
 13 18  4  0  0  0  0
M  END

> <ChembankId>
884

> <SMILES>
CN(C)CCC(c1ccccc1)c2ccccn2

> <InChI>
1/C16H20N2/c1-18(2)13-11-15(14-8-4-3-5-9-14)16-10-6-7-12-17-16/h3-10,12,15H,11,13H2,1-2H3

$$$$
885
  Marvin  11101114192D          

 22 25  0  0  0  0            999 V2000
   -0.3705   -1.6055    0.0000 Cl  0  0  0  0  0  0  0  0  0  0  0  0
    0.4178   -1.3623    0.0000 C   0  0  0  0  0  0  0  0  0  0  0  0
    0.6014   -0.5580    0.0000 C   0  0  0  0  0  0  0  0  0  0  0  0
    1.3897   -0.3148    0.0000 C   0  0  0  0  0  0  0  0  0  0  0  0
    1.9945   -0.8760    0.0000 C   0  0  0  0  0  0  0  0  0  0  0  0
    2.7378   -0.5180    0.0000 O   0  0  0  0  0  0  0  0  0  0  0  0
    3.4811   -0.8760    0.0000 C   0  0  0  0  0  0  0  0  0  0  0  0
    4.0859   -0.3148    0.0000 C   0  0  0  0  0  0  0  0  0  0  0  0
    4.8742   -0.5580    0.0000 C   0  0  0  0  0  0  0  0  0  0  0  0
    5.0578   -1.3623    0.0000 C   0  0  0  0  0  0  0  0  0  0  0  0
    4.4530   -1.9235    0.0000 C   0  0  0  0  0  0  0  0  0  0  0  0
    3.6647   -1.6803    0.0000 C   0  0  0  0  0  0  0  0  0  0  0  0
    3.1503   -2.3253    0.0000 N   0  0  0  0  0  0  0  0  0  0  0  0
    2.3253   -2.3253    0.0000 C   0  0  0  0  0  0  0  0  0  0  0  0
    1.9673   -3.0686    0.0000 N   0  0  0  0  0  0  0  0  0  0  0  0
    2.4321   -3.7502    0.0000 C   0  0  0  0  0  0  0  0  0  0  0  0
    2.0741   -4.4935    0.0000 C   0  0  0  0  0  0  0  0  0  0  0  0
    1.2514   -4.5552    0.0000 N   0  0  0  0  0  0  0  0  0  0  0  0
    0.7867   -3.8736    0.0000 C   0  0  0  0  0  0  0  0  0  0  0  0
    1.1447   -3.1303    0.0000 C   0  0  0  0  0  0  0  0  0  0  0  0
    1.8109   -1.6803    0.0000 C   0  0  0  0  0  0  0  0  0  0  0  0
    1.0226   -1.9235    0.0000 C   0  0  0  0  0  0  0  0  0  0  0  0
  1  2  1  0  0  0  0
  2  3  4  0  0  0  0
  3  4  4  0  0  0  0
  4  5  4  0  0  0  0
  5  6  1  0  0  0  0
  6  7  1  0  0  0  0
  7  8  4  0  0  0  0
  8  9  4  0  0  0  0
  9 10  4  0  0  0  0
 10 11  4  0  0  0  0
 11 12  4  0  0  0  0
  7 12  4  0  0  0  0
 12 13  1  0  0  0  0
 13 14  2  0  0  0  0
 14 15  1  0  0  0  0
 15 16  1  0  0  0  0
 16 17  1  0  0  0  0
 17 18  1  0  0  0  0
 18 19  1  0  0  0  0
 19 20  1  0  0  0  0
 15 20  1  0  0  0  0
 14 21  1  0  0  0  0
  5 21  4  0  0  0  0
 21 22  4  0  0  0  0
  2 22  4  0  0  0  0
M  END

> <ChembankId>
885

> <SMILES>
Clc1ccc2Oc3ccccc3N=C(N4CCNCC4)c2c1

> <InChI>
1/C17H16ClN3O/c18-12-5-6-15-13(11-12)17(21-9-7-19-8-10-21)20-14-3-1-2-4-16(14)22-15/h1-6,11,19H,7-10H2

$$$$
886
  Marvin  11101114192D          

 22 25  0  0  1  0            999 V2000
    2.8579    0.8250    0.0000 O   0  0  0  0  0  0  0  0  0  0  0  0
    2.8579    0.0000    0.0000 C   0  0  1  0  0  0  0  0  0  0  0  0
    3.5724   -0.4125    0.0000 C   0  0  1  0  0  0  0  0  0  0  0  0
    3.9971   -1.0644    0.0000 C   0  0  0  0  0  0  0  0  0  0  0  0
    4.8063   -1.0990    0.0000 C   0  0  2  0  0  0  0  0  0  0  0  0
    5.1038   -1.9451    0.0000 C   0  0  0  0  0  0  0  0  0  0  0  0
    4.6517   -1.4732    0.0000 C   0  0  0  0  0  0  0  0  0  0  0  0
    4.3961   -0.4569    0.0000 N   0  0  0  0  0  0  0  0  0  0  0  0
    5.0424    0.1877    0.0000 C   0  0  0  0  0  0  0  0  0  0  0  0
    5.4222   -0.4740    0.0000 C   0  0  2  0  0  0  0  0  0  0  0  0
    6.2404   -0.5797    0.0000 C   0  0  0  0  0  0  0  0  0  0  0  0
    6.7410    0.0760    0.0000 C   0  0  0  0  0  0  0  0  0  0  0  0
    2.1434   -0.4125    0.0000 C   0  0  0  0  0  0  0  0  0  0  0  0
    2.1434   -1.2375    0.0000 C   0  0  0  0  0  0  0  0  0  0  0  0
    1.4289   -1.6500    0.0000 C   0  0  0  0  0  0  0  0  0  0  0  0
    0.7145   -1.2375    0.0000 N   0  0  0  0  0  0  0  0  0  0  0  0
    0.7145   -0.4125    0.0000 C   0  0  0  0  0  0  0  0  0  0  0  0
    0.0000    0.0000    0.0000 C   0  0  0  0  0  0  0  0  0  0  0  0
    0.0000    0.8250    0.0000 C   0  0  0  0  0  0  0  0  0  0  0  0
    0.7145    1.2375    0.0000 C   0  0  0  0  0  0  0  0  0  0  0  0
    1.4289    0.8250    0.0000 C   0  0  0  0  0  0  0  0  0  0  0  0
    1.4289    0.0000    0.0000 C   0  0  0  0  0  0  0  0  0  0  0  0
  2  1  1  1  0  0  0
  3  2  1  6  0  0  0
  3  4  1  0  0  0  0
  5  4  1  1  0  0  0
  5  6  1  0  0  0  0
  6  7  1  0  0  0  0
  7  8  1  0  0  0  0
  3  8  1  0  0  0  0
  8  9  1  0  0  0  0
  9 10  1  0  0  0  0
  5 10  1  0  0  0  0
 10 11  1  6  0  0  0
 11 12  2  0  0  0  0
  2 13  1  0  0  0  0
 13 14  4  0  0  0  0
 14 15  4  0  0  0  0
 15 16  4  0  0  0  0
 16 17  4  0  0  0  0
 17 18  4  0  0  0  0
 18 19  4  0  0  0  0
 19 20  4  0  0  0  0
 20 21  4  0  0  0  0
 21 22  4  0  0  0  0
 13 22  4  0  0  0  0
 17 22  4  0  0  0  0
M  END

> <ChembankId>
886

> <SMILES>
O[C@@H]([C@H]1C[C@@H]2CCN1C[C@@H]2C=C)c3ccnc4ccccc34

> <InChI>
1/C19H22N2O/c1-2-13-12-21-10-8-14(13)11-18(21)19(22)16-7-9-20-17-6-4-3-5-15(16)17/h2-7,9,13-14,18-19,22H,1,8,10-12H2

$$$$
888
  Marvin  11101114192D          

 26 27  0  0  0  0            999 V2000
    3.9333    0.3660    0.0000 C   0  0  0  0  0  0  0  0  0  0  0  0
    3.5596   -0.3695    0.0000 C   0  0  0  0  0  0  0  0  0  0  0  0
    4.0097   -1.0609    0.0000 C   0  0  0  0  0  0  0  0  0  0  0  0
    2.7358   -0.4137    0.0000 N   0  3  0  0  0  0  0  0  0  0  0  0
    2.6916    0.4101    0.0000 C   0  0  0  0  0  0  0  0  0  0  0  0
    1.9120   -0.4578    0.0000 C   0  0  0  0  0  0  0  0  0  0  0  0
    1.5383   -1.1934    0.0000 C   0  0  0  0  0  0  0  0  0  0  0  0
    0.7145   -1.2375    0.0000 C   0  0  0  0  0  0  0  0  0  0  0  0
    0.6703   -0.4137    0.0000 C   0  0  0  0  0  0  0  0  0  0  0  0
    1.3617    0.0365    0.0000 O   0  0  0  0  0  0  0  0  0  0  0  0
   -0.0652   -0.0400    0.0000 N   0  0  0  0  0  0  0  0  0  0  0  0
   -0.1093   -1.2816    0.0000 C   0  0  0  0  0  0  0  0  0  0  0  0
   -0.4830   -2.0172    0.0000 C   0  0  0  0  0  0  0  0  0  0  0  0
   -1.3068   -2.0613    0.0000 C   0  0  0  0  0  0  0  0  0  0  0  0
   -1.7570   -1.3699    0.0000 C   0  0  0  0  0  0  0  0  0  0  0  0
   -1.3833   -0.6344    0.0000 C   0  0  0  0  0  0  0  0  0  0  0  0
   -0.5595   -0.5903    0.0000 C   0  0  0  0  0  0  0  0  0  0  0  0
    0.7586   -2.0613    0.0000 C   0  0  0  0  0  0  0  0  0  0  0  0
    1.4941   -2.4350    0.0000 C   0  0  0  0  0  0  0  0  0  0  0  0
    1.5383   -3.2588    0.0000 C   0  0  0  0  0  0  0  0  0  0  0  0
    0.8469   -3.7090    0.0000 C   0  0  0  0  0  0  0  0  0  0  0  0
    0.1114   -3.3353    0.0000 C   0  0  0  0  0  0  0  0  0  0  0  0
    0.0672   -2.5115    0.0000 C   0  0  0  0  0  0  0  0  0  0  0  0
    2.7799   -1.2375    0.0000 C   0  0  0  0  0  0  0  0  0  0  0  0
    3.5155   -1.6112    0.0000 C   0  0  0  0  0  0  0  0  0  0  0  0
    2.0886   -1.6876    0.0000 C   0  0  0  0  0  0  0  0  0  0  0  0
  1  2  1  0  0  0  0
  2  3  1  0  0  0  0
  2  4  1  0  0  0  0
  4  5  1  0  0  0  0
  4  6  1  0  0  0  0
  6  7  1  0  0  0  0
  7  8  1  0  0  0  0
  8  9  1  0  0  0  0
  9 10  2  0  0  0  0
  9 11  1  0  0  0  0
  8 12  1  0  0  0  0
 12 13  4  0  0  0  0
 13 14  4  0  0  0  0
 14 15  4  0  0  0  0
 15 16  4  0  0  0  0
 16 17  4  0  0  0  0
 12 17  4  0  0  0  0
  8 18  1  0  0  0  0
 18 19  4  0  0  0  0
 19 20  4  0  0  0  0
 20 21  4  0  0  0  0
 21 22  4  0  0  0  0
 22 23  4  0  0  0  0
 18 23  4  0  0  0  0
  4 24  1  0  0  0  0
 24 25  1  0  0  0  0
 24 26  1  0  0  0  0
M  CHG  1   4   1
M  END

> <ChembankId>
888

> <SMILES>
CC(C)[N+](C)(CCC(C(=O)N)(c1ccccc1)c2ccccc2)C(C)C

> <InChI>
1/C23H32N2O/c1-18(2)25(5,19(3)4)17-16-23(22(24)26,20-12-8-6-9-13-20)21-14-10-7-11-15-21/h6-15,18-19H,16-17H2,1-5H3,(H-,24,26)/p+1

$$$$
889
  Marvin  11101114192D          

  9  9  0  0  0  0            999 V2000
   -0.0000    2.4750    0.0000 N   0  0  0  0  0  0  0  0  0  0  0  0
    0.7145    2.0625    0.0000 C   0  0  0  0  0  0  0  0  0  0  0  0
    1.4289    2.4750    0.0000 O   0  0  0  0  0  0  0  0  0  0  0  0
    0.7145    1.2375    0.0000 C   0  0  0  0  0  0  0  0  0  0  0  0
    1.4289    0.8250    0.0000 C   0  0  0  0  0  0  0  0  0  0  0  0
    1.4289    0.0000    0.0000 N   0  0  0  0  0  0  0  0  0  0  0  0
    0.7145   -0.4125    0.0000 C   0  0  0  0  0  0  0  0  0  0  0  0
    0.0000   -0.0000    0.0000 C   0  0  0  0  0  0  0  0  0  0  0  0
   -0.0000    0.8250    0.0000 N   0  0  0  0  0  0  0  0  0  0  0  0
  1  2  1  0  0  0  0
  2  3  2  0  0  0  0
  2  4  1  0  0  0  0
  4  5  4  0  0  0  0
  5  6  4  0  0  0  0
  6  7  4  0  0  0  0
  7  8  4  0  0  0  0
  8  9  4  0  0  0  0
  4  9  4  0  0  0  0
M  END

> <ChembankId>
889

> <SMILES>
NC(=O)c1cnccn1

> <InChI>
1/C5H5N3O/c6-5(9)4-3-7-1-2-8-4/h1-3H,(H2,6,9)

$$$$
890
  Marvin  11101114192D          

 17 18  0  0  1  0            999 V2000
    0.0000   -2.4750    0.0000 C   0  0  0  0  0  0  0  0  0  0  0  0
    0.0000   -1.6500    0.0000 O   0  0  0  0  0  0  0  0  0  0  0  0
    0.7145   -1.2375    0.0000 C   0  0  0  0  0  0  0  0  0  0  0  0
    0.7145   -0.4125    0.0000 C   0  0  0  0  0  0  0  0  0  0  0  0
    1.4289    0.0000    0.0000 C   0  0  0  0  0  0  0  0  0  0  0  0
    2.1434   -0.4125    0.0000 C   0  0  0  0  0  0  0  0  0  0  0  0
    2.8579    0.0000    0.0000 C   0  0  0  0  0  0  0  0  0  0  0  0
    3.5724   -0.4125    0.0000 C   0  0  0  0  0  0  0  0  0  0  0  0
    3.5724   -1.2375    0.0000 C   0  0  0  0  0  0  0  0  0  0  0  0
    2.8579   -1.6500    0.0000 C   0  0  0  0  0  0  0  0  0  0  0  0
    2.1434   -1.2375    0.0000 C   0  0  0  0  0  0  0  0  0  0  0  0
    1.4289   -1.6500    0.0000 C   0  0  0  0  0  0  0  0  0  0  0  0
    4.2868   -0.0000    0.0000 C   0  0  2  0  0  0  0  0  0  0  0  0
    4.2868    0.8250    0.0000 C   0  0  0  0  0  0  0  0  0  0  0  0
    5.0013   -0.4125    0.0000 C   0  0  0  0  0  0  0  0  0  0  0  0
    5.7158   -0.0000    0.0000 O   0  0  0  0  0  0  0  0  0  0  0  0
    5.0013   -1.2375    0.0000 O   0  0  0  0  0  0  0  0  0  0  0  0
  1  2  1  0  0  0  0
  2  3  1  0  0  0  0
  3  4  4  0  0  0  0
  4  5  4  0  0  0  0
  5  6  4  0  0  0  0
  6  7  4  0  0  0  0
  7  8  4  0  0  0  0
  8  9  4  0  0  0  0
  9 10  4  0  0  0  0
 10 11  4  0  0  0  0
  6 11  4  0  0  0  0
 11 12  4  0  0  0  0
  3 12  4  0  0  0  0
  8 13  1  0  0  0  0
 13 14  1  6  0  0  0
 13 15  1  0  0  0  0
 15 16  2  0  0  0  0
 15 17  1  0  0  0  0
M  END

> <ChembankId>
890

> <SMILES>
COc1ccc2cc(ccc2c1)[C@H](C)C(=O)O

> <InChI>
1/C14H14O3/c1-9(14(15)16)10-3-4-12-8-13(17-2)6-5-11(12)7-10/h3-9H,1-2H3,(H,15,16)

$$$$
895
  Marvin  11101114192D          

 41 45  0  0  1  0            999 V2000
    1.4289   -2.4750    0.0000 C   0  0  0  0  0  0  0  0  0  0  0  0
    0.7145   -2.8875    0.0000 C   0  0  2  0  0  0  0  0  0  0  0  0
    0.0000   -2.4750    0.0000 O   0  0  0  0  0  0  0  0  0  0  0  0
   -0.7145   -2.8875    0.0000 C   0  0  1  0  0  0  0  0  0  0  0  0
   -1.4289   -2.4750    0.0000 O   0  0  0  0  0  0  0  0  0  0  0  0
   -1.4289   -1.6500    0.0000 C   0  0  2  0  0  0  0  0  0  0  0  0
   -2.1434   -1.2375    0.0000 C   0  0  1  0  0  0  0  0  0  0  0  0
   -2.8579   -1.6500    0.0000 O   0  0  0  0  0  0  0  0  0  0  0  0
   -2.1434   -0.4125    0.0000 C   0  0  2  0  0  0  0  0  0  0  0  0
   -2.8579   -0.0000    0.0000 O   0  0  0  0  0  0  0  0  0  0  0  0
   -1.4289   -0.0000    0.0000 C   0  0  1  0  0  0  0  0  0  0  0  0
   -1.4289    0.8250    0.0000 C   0  0  0  0  0  0  0  0  0  0  0  0
   -0.7145    1.2375    0.0000 O   0  0  0  0  0  0  0  0  0  0  0  0
   -0.7145   -0.4125    0.0000 O   0  0  0  0  0  0  0  0  0  0  0  0
   -0.7145   -1.2375    0.0000 C   0  0  1  0  0  0  0  0  0  0  0  0
    0.0000   -1.6500    0.0000 O   0  0  0  0  0  0  0  0  0  0  0  0
    0.7145   -1.2375    0.0000 C   0  0  0  0  0  0  0  0  0  0  0  0
    0.7145   -0.4125    0.0000 C   0  0  0  0  0  0  0  0  0  0  0  0
    1.4289    0.0000    0.0000 C   0  0  0  0  0  0  0  0  0  0  0  0
    1.4289    0.8250    0.0000 O   0  0  0  0  0  0  0  0  0  0  0  0
    2.1434   -0.4125    0.0000 C   0  0  0  0  0  0  0  0  0  0  0  0
    2.8579    0.0000    0.0000 C   0  0  0  0  0  0  0  0  0  0  0  0
    2.8579    0.8250    0.0000 O   0  0  0  0  0  0  0  0  0  0  0  0
    3.5724   -0.4125    0.0000 C   0  0  0  0  0  0  0  0  0  0  0  0
    3.5724   -1.2375    0.0000 C   0  0  2  0  0  0  0  0  0  0  0  0
    2.8579   -1.6500    0.0000 O   0  0  0  0  0  0  0  0  0  0  0  0
    2.1434   -1.2375    0.0000 C   0  0  0  0  0  0  0  0  0  0  0  0
    1.4289   -1.6500    0.0000 C   0  0  0  0  0  0  0  0  0  0  0  0
    4.2868   -1.6500    0.0000 C   0  0  0  0  0  0  0  0  0  0  0  0
    5.0013   -1.2375    0.0000 C   0  0  0  0  0  0  0  0  0  0  0  0
    5.7158   -1.6500    0.0000 C   0  0  0  0  0  0  0  0  0  0  0  0
    5.7158   -2.4750    0.0000 C   0  0  0  0  0  0  0  0  0  0  0  0
    6.4302   -2.8875    0.0000 O   0  0  0  0  0  0  0  0  0  0  0  0
    5.0013   -2.8875    0.0000 C   0  0  0  0  0  0  0  0  0  0  0  0
    4.2868   -2.4750    0.0000 C   0  0  0  0  0  0  0  0  0  0  0  0
   -0.7145   -3.7125    0.0000 C   0  0  2  0  0  0  0  0  0  0  0  0
   -1.4289   -4.1250    0.0000 O   0  0  0  0  0  0  0  0  0  0  0  0
    0.0000   -4.1250    0.0000 C   0  0  2  0  0  0  0  0  0  0  0  0
    0.0000   -4.9500    0.0000 O   0  0  0  0  0  0  0  0  0  0  0  0
    0.7145   -3.7125    0.0000 C   0  0  1  0  0  0  0  0  0  0  0  0
    1.4289   -4.1250    0.0000 O   0  0  0  0  0  0  0  0  0  0  0  0
  2  1  1  1  0  0  0
  2  3  1  0  0  0  0
  3  4  1  0  0  0  0
  4  5  1  6  0  0  0
  6  5  1  6  0  0  0
  6  7  1  0  0  0  0
  7  8  1  1  0  0  0
  7  9  1  0  0  0  0
  9 10  1  6  0  0  0
  9 11  1  0  0  0  0
 11 12  1  1  0  0  0
 12 13  1  0  0  0  0
 11 14  1  0  0  0  0
 14 15  1  0  0  0  0
  6 15  1  0  0  0  0
 15 16  1  1  0  0  0
 16 17  1  0  0  0  0
 17 18  4  0  0  0  0
 18 19  4  0  0  0  0
 19 20  1  0  0  0  0
 19 21  4  0  0  0  0
 21 22  1  0  0  0  0
 22 23  2  0  0  0  0
 22 24  1  0  0  0  0
 24 25  1  0  0  0  0
 25 26  1  0  0  0  0
 26 27  1  0  0  0  0
 21 27  4  0  0  0  0
 27 28  4  0  0  0  0
 17 28  4  0  0  0  0
 25 29  1  1  0  0  0
 29 30  4  0  0  0  0
 30 31  4  0  0  0  0
 31 32  4  0  0  0  0
 32 33  1  0  0  0  0
 32 34  4  0  0  0  0
 34 35  4  0  0  0  0
 29 35  4  0  0  0  0
  4 36  1  0  0  0  0
 36 37  1  1  0  0  0
 36 38  1  0  0  0  0
 38 39  1  1  0  0  0
 38 40  1  0  0  0  0
  2 40  1  0  0  0  0
 40 41  1  6  0  0  0
M  END

> <ChembankId>
895

> <SMILES>
C[C@@H]1O[C@@H](O[C@@H]2[C@@H](O)[C@H](O)[C@@H](CO)O[C@H]2Oc3cc(O)c4C(=O)C[C@H](Oc4c3)c5ccc(O)cc5)[C@H](O)[C@H](O)[C@H]1O

> <InChI>
1/C27H32O14/c1-10-20(32)22(34)24(36)26(37-10)41-25-23(35)21(33)18(9-28)40-27(25)38-13-6-14(30)19-15(31)8-16(39-17(19)7-13)11-2-4-12(29)5-3-11/h2-7,10,16,18,20-30,32-36H,8-9H2,1H3

$$$$
896
  Marvin  11101114192D          

 14 14  0  0  0  0            999 V2000
   -1.4289    0.0000    0.0000 C   0  0  0  0  0  0  0  0  0  0  0  0
   -0.7145   -0.4125    0.0000 O   0  0  0  0  0  0  0  0  0  0  0  0
    0.0000    0.0000    0.0000 C   0  0  0  0  0  0  0  0  0  0  0  0
    0.0000    0.8250    0.0000 C   0  0  0  0  0  0  0  0  0  0  0  0
    0.7145    1.2375    0.0000 C   0  0  0  0  0  0  0  0  0  0  0  0
    1.4289    0.8250    0.0000 C   0  0  0  0  0  0  0  0  0  0  0  0
    1.4289    0.0000    0.0000 C   0  0  0  0  0  0  0  0  0  0  0  0
    0.7145   -0.4125    0.0000 C   0  0  0  0  0  0  0  0  0  0  0  0
    0.7145   -1.2375    0.0000 O   0  0  0  0  0  0  0  0  0  0  0  0
    1.4289   -1.6500    0.0000 C   0  0  0  0  0  0  0  0  0  0  0  0
    2.1434   -1.2375    0.0000 C   0  0  0  0  0  0  0  0  0  0  0  0
    2.1434   -0.4125    0.0000 O   0  0  0  0  0  0  0  0  0  0  0  0
    2.8579   -1.6500    0.0000 C   0  0  0  0  0  0  0  0  0  0  0  0
    3.5724   -1.2375    0.0000 O   0  0  0  0  0  0  0  0  0  0  0  0
  1  2  1  0  0  0  0
  2  3  1  0  0  0  0
  3  4  4  0  0  0  0
  4  5  4  0  0  0  0
  5  6  4  0  0  0  0
  6  7  4  0  0  0  0
  7  8  4  0  0  0  0
  3  8  4  0  0  0  0
  8  9  1  0  0  0  0
  9 10  1  0  0  0  0
 10 11  1  0  0  0  0
 11 12  1  0  0  0  0
 11 13  1  0  0  0  0
 13 14  1  0  0  0  0
M  END

> <ChembankId>
896

> <SMILES>
COc1ccccc1OCC(O)CO

> <InChI>
1/C10H14O4/c1-13-9-4-2-3-5-10(9)14-7-8(12)6-11/h2-5,8,11-12H,6-7H2,1H3

$$$$
901
  Marvin  11101114192D          

 33 36  0  0  1  0            999 V2000
    5.7158    2.4750    0.0000 C   0  0  0  0  0  0  0  0  0  0  0  0
    5.0013    2.0625    0.0000 N   0  0  0  0  0  0  0  0  0  0  0  0
    4.2868    2.4750    0.0000 C   0  0  0  0  0  0  0  0  0  0  0  0
    5.0013    1.2375    0.0000 C   0  0  1  0  0  0  0  0  0  0  0  0
    4.2868    0.8250    0.0000 C   0  0  2  0  0  0  0  0  0  0  0  0
    3.5724    1.2375    0.0000 C   0  0  0  0  0  0  0  0  0  0  0  0
    2.8579    0.8250    0.0000 C   0  0  1  0  0  0  0  0  0  0  0  0
    2.8579    0.0000    0.0000 C   0  0  0  0  0  0  0  0  0  0  0  0
    3.5724   -0.4125    0.0000 C   0  0  0  0  0  0  0  0  0  0  0  0
    3.5724   -1.2375    0.0000 O   0  0  0  0  0  0  0  0  0  0  0  0
    4.2868    0.0000    0.0000 C   0  0  1  0  0  0  0  0  0  0  0  0
    4.2868   -0.8250    0.0000 O   0  0  0  0  0  0  0  0  0  0  0  0
    5.0013   -0.4125    0.0000 C   0  0  0  0  0  0  0  0  0  0  0  0
    5.0013   -1.2375    0.0000 O   0  0  0  0  0  0  0  0  0  0  0  0
    5.7158   -0.0000    0.0000 C   0  0  0  0  0  0  0  0  0  0  0  0
    5.7158    0.8250    0.0000 C   0  0  0  0  0  0  0  0  0  0  0  0
    6.4302    1.2375    0.0000 O   0  0  0  0  0  0  0  0  0  0  0  0
    6.4302   -0.4125    0.0000 C   0  0  0  0  0  0  0  0  0  0  0  0
    7.1447   -0.0000    0.0000 O   0  0  0  0  0  0  0  0  0  0  0  0
    6.4302   -1.2375    0.0000 N   0  0  0  0  0  0  0  0  0  0  0  0
    2.1434   -0.4125    0.0000 C   0  0  0  0  0  0  0  0  0  0  0  0
    2.1434   -1.2375    0.0000 O   0  0  0  0  0  0  0  0  0  0  0  0
    1.4289   -0.0000    0.0000 C   0  0  0  0  0  0  0  0  0  0  0  0
    0.7145   -0.4125    0.0000 C   0  0  0  0  0  0  0  0  0  0  0  0
    0.7145   -1.2375    0.0000 O   0  0  0  0  0  0  0  0  0  0  0  0
   -0.0000    0.0000    0.0000 C   0  0  0  0  0  0  0  0  0  0  0  0
    0.0000    0.8250    0.0000 C   0  0  0  0  0  0  0  0  0  0  0  0
    0.7145    1.2375    0.0000 C   0  0  0  0  0  0  0  0  0  0  0  0
    0.7145    2.0625    0.0000 Cl  0  0  0  0  0  0  0  0  0  0  0  0
    1.4289    0.8250    0.0000 C   0  0  0  0  0  0  0  0  0  0  0  0
    2.1434    1.2375    0.0000 C   0  0  2  0  0  0  0  0  0  0  0  0
    1.7561    1.9659    0.0000 C   0  0  0  0  0  0  0  0  0  0  0  0
    2.5307    1.9659    0.0000 O   0  0  0  0  0  0  0  0  0  0  0  0
  1  2  1  0  0  0  0
  2  3  1  0  0  0  0
  4  2  1  6  0  0  0
  4  5  1  0  0  0  0
  5  6  1  1  0  0  0
  7  6  1  1  0  0  0
  7  8  1  0  0  0  0
  8  9  2  0  0  0  0
  9 10  1  0  0  0  0
  9 11  1  0  0  0  0
  5 11  1  0  0  0  0
 11 12  1  6  0  0  0
 11 13  1  0  0  0  0
 13 14  2  0  0  0  0
 13 15  1  0  0  0  0
 15 16  2  0  0  0  0
  4 16  1  0  0  0  0
 16 17  1  0  0  0  0
 15 18  1  0  0  0  0
 18 19  2  0  0  0  0
 18 20  1  0  0  0  0
  8 21  1  0  0  0  0
 21 22  2  0  0  0  0
 21 23  1  0  0  0  0
 23 24  4  0  0  0  0
 24 25  1  0  0  0  0
 24 26  4  0  0  0  0
 26 27  4  0  0  0  0
 27 28  4  0  0  0  0
 28 29  1  0  0  0  0
 28 30  4  0  0  0  0
 23 30  4  0  0  0  0
 30 31  1  0  0  0  0
  7 31  1  0  0  0  0
 31 32  1  6  0  0  0
 31 33  1  1  0  0  0
M  END

> <ChembankId>
901

> <SMILES>
CN(C)[C@H]1[C@@H]2C[C@H]3C(=C(O)[C@]2(O)C(=O)C(=C1O)C(=O)N)C(=O)c4c(O)ccc(Cl)c4[C@@]3(C)O

> <InChI>
1/C22H23ClN2O8/c1-21(32)7-6-8-15(25(2)3)17(28)13(20(24)31)19(30)22(8,33)18(29)11(7)16(27)12-10(26)5-4-9(23)14(12)21/h4-5,7-8,15,26,28-29,32-33H,6H2,1-3H3,(H2,24,31)

$$$$
903
  Marvin  11101114192D          

 21 23  0  0  0  0            999 V2000
   -1.8212    0.7310    0.0000 C   0  0  0  0  0  0  0  0  0  0  0  0
   -1.4087    0.0165    0.0000 O   0  0  0  0  0  0  0  0  0  0  0  0
   -0.5837    0.0165    0.0000 C   0  0  0  0  0  0  0  0  0  0  0  0
   -0.1712    0.7310    0.0000 O   0  0  0  0  0  0  0  0  0  0  0  0
   -0.1712   -0.6979    0.0000 N   0  0  0  0  0  0  0  0  0  0  0  0
    0.6538   -0.6979    0.0000 C   0  0  0  0  0  0  0  0  0  0  0  0
    1.1387   -0.0305    0.0000 N   0  0  0  0  0  0  0  0  0  0  0  0
    1.9233   -0.2854    0.0000 C   0  0  0  0  0  0  0  0  0  0  0  0
    2.6378    0.1271    0.0000 C   0  0  0  0  0  0  0  0  0  0  0  0
    3.3523   -0.2854    0.0000 C   0  0  0  0  0  0  0  0  0  0  0  0
    3.3523   -1.1104    0.0000 C   0  0  0  0  0  0  0  0  0  0  0  0
    4.0668   -1.5229    0.0000 S   0  0  0  0  0  0  0  0  0  0  0  0
    4.0668   -2.3479    0.0000 C   0  0  0  0  0  0  0  0  0  0  0  0
    4.7812   -2.7604    0.0000 C   0  0  0  0  0  0  0  0  0  0  0  0
    4.7812   -3.5854    0.0000 C   0  0  0  0  0  0  0  0  0  0  0  0
    4.0668   -3.9979    0.0000 C   0  0  0  0  0  0  0  0  0  0  0  0
    3.3523   -3.5854    0.0000 C   0  0  0  0  0  0  0  0  0  0  0  0
    3.3523   -2.7604    0.0000 C   0  0  0  0  0  0  0  0  0  0  0  0
    2.6378   -1.5229    0.0000 C   0  0  0  0  0  0  0  0  0  0  0  0
    1.9233   -1.1104    0.0000 C   0  0  0  0  0  0  0  0  0  0  0  0
    1.1387   -1.3654    0.0000 N   0  0  0  0  0  0  0  0  0  0  0  0
  1  2  1  0  0  0  0
  2  3  1  0  0  0  0
  3  4  2  0  0  0  0
  3  5  1  0  0  0  0
  5  6  1  0  0  0  0
  6  7  4  0  0  0  0
  7  8  4  0  0  0  0
  8  9  4  0  0  0  0
  9 10  4  0  0  0  0
 10 11  4  0  0  0  0
 11 12  1  0  0  0  0
 12 13  1  0  0  0  0
 13 14  4  0  0  0  0
 14 15  4  0  0  0  0
 15 16  4  0  0  0  0
 16 17  4  0  0  0  0
 17 18  4  0  0  0  0
 13 18  4  0  0  0  0
 11 19  4  0  0  0  0
 19 20  4  0  0  0  0
  8 20  4  0  0  0  0
 20 21  4  0  0  0  0
  6 21  4  0  0  0  0
M  STY  1   1 DAT
M  SAL   1  1  21
M  SDT   1 MRV_IMPLICIT_H                                        
M  SDD   1     0.0000    0.0000    DR    ALL  0       0  
M  SED   1 IMPL_H1
M  END

> <ChembankId>
903

> <SMILES>
COC(=O)Nc1nc2ccc(Sc3ccccc3)cc2[nH]1

> <InChI>
1/C15H13N3O2S/c1-20-15(19)18-14-16-12-8-7-11(9-13(12)17-14)21-10-5-3-2-4-6-10/h2-9H,1H3,(H2,16,17,18,19)

$$$$
904
  Marvin  11101114192D          

 10 10  0  0  0  0            999 V2000
    2.9760    1.9462    0.0000 N   0  0  0  0  0  0  0  0  0  0  0  0
    2.1913    1.6913    0.0000 C   0  0  0  0  0  0  0  0  0  0  0  0
    1.5783    2.2433    0.0000 O   0  0  0  0  0  0  0  0  0  0  0  0
    2.0198    0.8843    0.0000 C   0  0  0  0  0  0  0  0  0  0  0  0
    1.2352    0.6294    0.0000 N   0  0  0  0  0  0  0  0  0  0  0  0
    0.9803   -0.1553    0.0000 C   0  0  0  0  0  0  0  0  0  0  0  0
    0.1553   -0.1553    0.0000 C   0  0  0  0  0  0  0  0  0  0  0  0
   -0.0997    0.6294    0.0000 C   0  0  0  0  0  0  0  0  0  0  0  0
    0.5678    1.1143    0.0000 C   0  0  0  0  0  0  0  0  0  0  0  0
    0.5678    1.9393    0.0000 O   0  0  0  0  0  0  0  0  0  0  0  0
  1  2  1  0  0  0  0
  2  3  2  0  0  0  0
  2  4  1  0  0  0  0
  4  5  1  0  0  0  0
  5  6  1  0  0  0  0
  6  7  1  0  0  0  0
  7  8  1  0  0  0  0
  8  9  1  0  0  0  0
  5  9  1  0  0  0  0
  9 10  2  0  0  0  0
M  END

> <ChembankId>
904

> <SMILES>
NC(=O)CN1CCCC1=O

> <InChI>
1/C6H10N2O2/c7-5(9)4-8-3-1-2-6(8)10/h1-4H2,(H2,7,9)

$$$$
910
  Marvin  11101114192D          

 30 34  0  0  1  0            999 V2000
   -2.2715   -0.9778    0.0000 C   0  0  0  0  0  0  0  0  0  0  0  0
   -1.5575   -1.3911    0.0000 N   0  0  0  0  0  0  0  0  0  0  0  0
   -1.5585   -2.2161    0.0000 C   0  0  0  0  0  0  0  0  0  0  0  0
   -0.8445   -2.6295    0.0000 C   0  0  0  0  0  0  0  0  0  0  0  0
   -0.8455   -3.4545    0.0000 C   0  0  0  0  0  0  0  0  0  0  0  0
   -1.5605   -3.8661    0.0000 N   0  0  0  0  0  0  0  0  0  0  0  0
   -1.5615   -4.6911    0.0000 C   0  0  0  0  0  0  0  0  0  0  0  0
   -0.8475   -5.1045    0.0000 O   0  0  0  0  0  0  0  0  0  0  0  0
   -2.2764   -5.1028    0.0000 O   0  0  0  0  0  0  0  0  0  0  0  0
   -2.2774   -5.9278    0.0000 C   0  0  0  0  0  0  0  0  0  0  0  0
   -2.9924   -6.3394    0.0000 C   0  0  0  0  0  0  0  0  0  0  0  0
   -2.9934   -7.1644    0.0000 C   0  0  0  0  0  0  0  0  0  0  0  0
   -3.7083   -7.5761    0.0000 C   0  0  0  0  0  0  0  0  0  0  0  0
   -4.4223   -7.1627    0.0000 C   0  0  0  0  0  0  0  0  0  0  0  0
   -4.4213   -6.3377    0.0000 C   0  0  0  0  0  0  0  0  0  0  0  0
   -3.7064   -5.9261    0.0000 C   0  0  0  0  0  0  0  0  0  0  0  0
   -0.1296   -2.2179    0.0000 C   0  0  0  0  0  0  0  0  0  0  0  0
   -0.1286   -1.3929    0.0000 C   0  0  2  0  0  0  0  0  0  0  0  0
   -0.8425   -0.9795    0.0000 C   0  0  0  0  0  0  0  0  0  0  0  0
   -0.8411   -0.1554    0.0000 C   0  0  0  0  0  0  0  0  0  0  0  0
   -0.1286    0.2571    0.0000 C   0  0  0  0  0  0  0  0  0  0  0  0
    0.1714    1.1143    0.0000 C   0  0  0  0  0  0  0  0  0  0  0  0
    0.9964    1.1143    0.0000 N   0  0  0  0  0  0  0  0  0  0  0  0
    1.4719    1.7885    0.0000 C   0  0  0  0  0  0  0  0  0  0  0  0
    1.3018    0.2571    0.0000 C   0  0  0  0  0  0  0  0  0  0  0  0
    2.0143   -0.1554    0.0000 C   0  0  0  0  0  0  0  0  0  0  0  0
    2.0143   -0.9804    0.0000 C   0  0  0  0  0  0  0  0  0  0  0  0
    1.3018   -1.3929    0.0000 C   0  0  0  0  0  0  0  0  0  0  0  0
    0.5839   -0.9804    0.0000 C   0  0  0  0  0  0  0  0  0  0  0  0
    0.5839   -0.1554    0.0000 C   0  0  0  0  0  0  0  0  0  0  0  0
  1  2  1  0  0  0  0
  2  3  1  0  0  0  0
  3  4  1  0  0  0  0
  4  5  1  0  0  0  0
  5  6  1  0  0  0  0
  6  7  1  0  0  0  0
  7  8  2  0  0  0  0
  7  9  1  0  0  0  0
  9 10  1  0  0  0  0
 10 11  1  0  0  0  0
 11 12  4  0  0  0  0
 12 13  4  0  0  0  0
 13 14  4  0  0  0  0
 14 15  4  0  0  0  0
 15 16  4  0  0  0  0
 11 16  4  0  0  0  0
  4 17  1  0  0  0  0
 17 18  1  0  0  0  0
 18 19  1  0  0  0  0
  2 19  1  0  0  0  0
 19 20  1  0  0  0  0
 20 21  1  0  0  0  0
 21 22  4  0  0  0  0
 22 23  4  0  0  0  0
 23 24  1  0  0  0  0
 23 25  4  0  0  0  0
 25 26  4  0  0  0  0
 26 27  4  0  0  0  0
 27 28  4  0  0  0  0
 28 29  4  0  0  0  0
 18 29  1  6  0  0  0
 29 30  4  0  0  0  0
 21 30  4  0  0  0  0
 25 30  4  0  0  0  0
M  END

> <ChembankId>
910

> <SMILES>
CN1CC(CNC(=O)OCc2ccccc2)C[C@@H]3C1Cc4cn(C)c5cccc3c45

> <InChI>
1/C25H29N3O2/c1-27-14-18(13-26-25(29)30-16-17-7-4-3-5-8-17)11-21-20-9-6-10-22-24(20)19(12-23(21)27)15-28(22)2/h3-10,15,18,21,23H,11-14,16H2,1-2H3,(H,26,29)

$$$$
912
  Marvin  11101114192D          

 11 11  0  0  0  0            999 V2000
    3.5724   -0.4125    0.0000 C   0  0  0  0  0  0  0  0  0  0  0  0
    2.8579   -0.0000    0.0000 C   0  0  0  0  0  0  0  0  0  0  0  0
    2.1434   -0.4125    0.0000 C   0  0  0  0  0  0  0  0  0  0  0  0
    1.4289   -0.0000    0.0000 C   0  0  0  0  0  0  0  0  0  0  0  0
    0.7145   -0.4125    0.0000 C   0  0  0  0  0  0  0  0  0  0  0  0
    0.0000   -0.0000    0.0000 C   0  0  0  0  0  0  0  0  0  0  0  0
   -0.7145   -0.4125    0.0000 O   0  0  0  0  0  0  0  0  0  0  0  0
    0.0000    0.8250    0.0000 N   0  0  0  0  0  0  0  0  0  0  0  0
    0.7145    1.2375    0.0000 C   0  0  0  0  0  0  0  0  0  0  0  0
    0.7145    2.0625    0.0000 S   0  0  0  0  0  0  0  0  0  0  0  0
    1.4289    0.8250    0.0000 N   0  0  0  0  0  0  0  0  0  0  0  0
  1  2  1  0  0  0  0
  2  3  1  0  0  0  0
  3  4  1  0  0  0  0
  4  5  4  0  0  0  0
  5  6  4  0  0  0  0
  6  7  2  0  0  0  0
  6  8  4  0  0  0  0
  8  9  4  0  0  0  0
  9 10  2  0  0  0  0
  9 11  4  0  0  0  0
  4 11  4  0  0  0  0
M  STY  2   1 DAT   2 DAT
M  SAL   1  1   8
M  SDT   1 MRV_IMPLICIT_H                                        
M  SDD   1     0.0000    0.0000    DR    ALL  0       0  
M  SED   1 IMPL_H1
M  SAL   2  1  11
M  SDT   2 MRV_IMPLICIT_H                                        
M  SDD   2     0.0000    0.0000    DR    ALL  0       0  
M  SED   2 IMPL_H1
M  END

> <ChembankId>
912

> <SMILES>
CCCc1cc(=O)[nH]c(=S)[nH]1

> <InChI>
1/C7H10N2OS/c1-2-3-5-4-6(10)9-7(11)8-5/h4H,2-3H2,1H3,(H2,8,9,10,11)

$$$$
2797
  Marvin  11101114192D          

 25 27  0  0  0  0            999 V2000
    4.0668    3.1729    0.0000 C   0  0  0  0  0  0  0  0  0  0  0  0
    4.0668    2.3479    0.0000 O   0  0  0  0  0  0  0  0  0  0  0  0
    3.3523    1.9354    0.0000 C   0  0  0  0  0  0  0  0  0  0  0  0
    3.3523    1.1104    0.0000 C   0  0  0  0  0  0  0  0  0  0  0  0
    2.6378    0.6979    0.0000 C   0  0  0  0  0  0  0  0  0  0  0  0
    1.9233    1.1104    0.0000 C   0  0  0  0  0  0  0  0  0  0  0  0
    1.1387    0.8555    0.0000 N   0  0  0  0  0  0  0  0  0  0  0  0
    0.8838    0.0709    0.0000 C   0  0  0  0  0  0  0  0  0  0  0  0
    1.4358   -0.5422    0.0000 O   0  0  0  0  0  0  0  0  0  0  0  0
    0.0768   -0.1006    0.0000 C   0  0  0  0  0  0  0  0  0  0  0  0
   -0.1781   -0.8853    0.0000 C   0  0  0  0  0  0  0  0  0  0  0  0
   -0.9851   -1.0568    0.0000 C   0  0  0  0  0  0  0  0  0  0  0  0
   -1.5371   -0.4437    0.0000 C   0  0  0  0  0  0  0  0  0  0  0  0
   -2.3441   -0.6152    0.0000 Cl  0  0  0  0  0  0  0  0  0  0  0  0
   -1.2822    0.3409    0.0000 C   0  0  0  0  0  0  0  0  0  0  0  0
   -0.4752    0.5124    0.0000 C   0  0  0  0  0  0  0  0  0  0  0  0
    0.6538    1.5229    0.0000 C   0  0  0  0  0  0  0  0  0  0  0  0
   -0.1712    1.5229    0.0000 C   0  0  0  0  0  0  0  0  0  0  0  0
    1.1387    2.1904    0.0000 C   0  0  0  0  0  0  0  0  0  0  0  0
    0.8838    2.9750    0.0000 C   0  0  0  0  0  0  0  0  0  0  0  0
    0.0768    3.1465    0.0000 C   0  0  0  0  0  0  0  0  0  0  0  0
   -0.4752    2.5334    0.0000 O   0  0  0  0  0  0  0  0  0  0  0  0
   -0.1781    3.9312    0.0000 O   0  0  0  0  0  0  0  0  0  0  0  0
    1.9233    1.9354    0.0000 C   0  0  0  0  0  0  0  0  0  0  0  0
    2.6378    2.3479    0.0000 C   0  0  0  0  0  0  0  0  0  0  0  0
  1  2  1  0  0  0  0
  2  3  1  0  0  0  0
  3  4  4  0  0  0  0
  4  5  4  0  0  0  0
  5  6  4  0  0  0  0
  6  7  4  0  0  0  0
  7  8  1  0  0  0  0
  8  9  2  0  0  0  0
  8 10  1  0  0  0  0
 10 11  4  0  0  0  0
 11 12  4  0  0  0  0
 12 13  4  0  0  0  0
 13 14  1  0  0  0  0
 13 15  4  0  0  0  0
 15 16  4  0  0  0  0
 10 16  4  0  0  0  0
  7 17  4  0  0  0  0
 17 18  1  0  0  0  0
 17 19  4  0  0  0  0
 19 20  1  0  0  0  0
 20 21  1  0  0  0  0
 21 22  2  0  0  0  0
 21 23  1  0  0  0  0
 19 24  4  0  0  0  0
  6 24  4  0  0  0  0
 24 25  4  0  0  0  0
  3 25  4  0  0  0  0
M  END

> <ChembankId>
2797

> <SMILES>
COc1ccc2n(C(=O)c3ccc(Cl)cc3)c(C)c(CC(=O)O)c2c1

> <InChI>
1/C19H16ClNO4/c1-11-15(10-18(22)23)16-9-14(25-2)7-8-17(16)21(11)19(24)12-3-5-13(20)6-4-12/h3-9H,10H2,1-2H3,(H,22,23)

$$$$
917
  Marvin  11101114192D          

 27 29  0  0  0  0            999 V2000
   -2.1434   -2.0625    0.0000 N   0  0  0  0  0  0  0  0  0  0  0  0
   -1.4289   -1.6500    0.0000 S   0  0  0  0  0  0  0  0  0  0  0  0
   -1.0164   -2.3645    0.0000 O   0  0  0  0  0  0  0  0  0  0  0  0
   -1.8414   -0.9355    0.0000 O   0  0  0  0  0  0  0  0  0  0  0  0
   -0.7145   -1.2375    0.0000 C   0  0  0  0  0  0  0  0  0  0  0  0
    0.0000   -1.6500    0.0000 C   0  0  0  0  0  0  0  0  0  0  0  0
    0.7145   -1.2375    0.0000 C   0  0  0  0  0  0  0  0  0  0  0  0
    0.7145   -0.4125    0.0000 C   0  0  0  0  0  0  0  0  0  0  0  0
    1.4289   -0.0000    0.0000 N   0  0  0  0  0  0  0  0  0  0  0  0
    2.1434   -0.4125    0.0000 C   0  0  0  0  0  0  0  0  0  0  0  0
    2.8579   -0.0000    0.0000 C   0  0  0  0  0  0  0  0  0  0  0  0
    3.5724   -0.4125    0.0000 C   0  0  0  0  0  0  0  0  0  0  0  0
    4.2868   -0.0000    0.0000 C   0  0  0  0  0  0  0  0  0  0  0  0
    5.0013   -0.4125    0.0000 C   0  0  0  0  0  0  0  0  0  0  0  0
    5.0013   -1.2375    0.0000 C   0  0  0  0  0  0  0  0  0  0  0  0
    4.2868   -1.6500    0.0000 C   0  0  0  0  0  0  0  0  0  0  0  0
    3.5724   -1.2375    0.0000 C   0  0  0  0  0  0  0  0  0  0  0  0
    2.1434   -1.2375    0.0000 N   0  0  0  0  0  0  0  0  0  0  0  0
    1.4289   -1.6500    0.0000 S   0  0  0  0  0  0  0  0  0  0  0  0
    1.8163   -2.3784    0.0000 O   0  0  0  0  0  0  0  0  0  0  0  0
    1.0416   -2.3784    0.0000 O   0  0  0  0  0  0  0  0  0  0  0  0
    0.0000   -0.0000    0.0000 C   0  0  0  0  0  0  0  0  0  0  0  0
   -0.7145   -0.4125    0.0000 C   0  0  0  0  0  0  0  0  0  0  0  0
   -1.4289    0.0000    0.0000 C   0  0  0  0  0  0  0  0  0  0  0  0
   -2.1434    0.4125    0.0000 F   0  0  0  0  0  0  0  0  0  0  0  0
   -2.0420   -0.5520    0.0000 F   0  0  0  0  0  0  0  0  0  0  0  0
   -1.0164    0.7145    0.0000 F   0  0  0  0  0  0  0  0  0  0  0  0
  1  2  1  0  0  0  0
  2  3  2  0  0  0  0
  2  4  2  0  0  0  0
  2  5  1  0  0  0  0
  5  6  4  0  0  0  0
  6  7  4  0  0  0  0
  7  8  4  0  0  0  0
  8  9  1  0  0  0  0
  9 10  1  0  0  0  0
 10 11  1  0  0  0  0
 11 12  1  0  0  0  0
 12 13  4  0  0  0  0
 13 14  4  0  0  0  0
 14 15  4  0  0  0  0
 15 16  4  0  0  0  0
 16 17  4  0  0  0  0
 12 17  4  0  0  0  0
 10 18  1  0  0  0  0
 18 19  1  0  0  0  0
  7 19  1  0  0  0  0
 19 20  2  0  0  0  0
 19 21  2  0  0  0  0
  8 22  4  0  0  0  0
 22 23  4  0  0  0  0
  5 23  4  0  0  0  0
 23 24  1  0  0  0  0
 24 25  1  0  0  0  0
 24 26  1  0  0  0  0
 24 27  1  0  0  0  0
M  END

> <ChembankId>
917

> <SMILES>
NS(=O)(=O)c1cc2c(NC(Cc3ccccc3)NS2(=O)=O)cc1C(F)(F)F

> <InChI>
1/C15H14F3N3O4S2/c16-15(17,18)10-7-11-13(8-12(10)26(19,22)23)27(24,25)21-14(20-11)6-9-4-2-1-3-5-9/h1-5,7-8,14,20-21H,6H2,(H2,19,22,23)

$$$$
918
  Marvin  11101114192D          

 24 26  0  0  0  0            999 V2000
    0.0000    0.0000    0.0000 C   0  0  0  0  0  0  0  0  0  0  0  0
    0.7145   -0.4125    0.0000 C   0  0  0  0  0  0  0  0  0  0  0  0
    1.4289    0.0000    0.0000 N   0  0  0  0  0  0  0  0  0  0  0  0
    2.1434   -0.4125    0.0000 C   0  0  0  0  0  0  0  0  0  0  0  0
    2.8579    0.0000    0.0000 C   0  0  0  0  0  0  0  0  0  0  0  0
    3.5724   -0.4125    0.0000 C   0  0  0  0  0  0  0  0  0  0  0  0
    4.2868   -0.0000    0.0000 Cl  0  0  0  0  0  0  0  0  0  0  0  0
    3.5724   -1.2375    0.0000 C   0  0  0  0  0  0  0  0  0  0  0  0
    2.8579   -1.6500    0.0000 C   0  0  0  0  0  0  0  0  0  0  0  0
    2.1434   -1.2375    0.0000 C   0  0  0  0  0  0  0  0  0  0  0  0
    1.4289   -1.6500    0.0000 C   0  0  0  0  0  0  0  0  0  0  0  0
    1.4289   -2.4750    0.0000 O   0  0  0  0  0  0  0  0  0  0  0  0
    0.7145   -1.2375    0.0000 N   0  0  0  0  0  0  0  0  0  0  0  0
    0.0000   -1.6500    0.0000 C   0  0  0  0  0  0  0  0  0  0  0  0
    0.0000   -2.4750    0.0000 C   0  0  0  0  0  0  0  0  0  0  0  0
   -0.7145   -2.8875    0.0000 C   0  0  0  0  0  0  0  0  0  0  0  0
   -1.4289   -2.4750    0.0000 C   0  0  0  0  0  0  0  0  0  0  0  0
   -1.4289   -1.6500    0.0000 C   0  0  0  0  0  0  0  0  0  0  0  0
   -0.7145   -1.2375    0.0000 C   0  0  0  0  0  0  0  0  0  0  0  0
   -0.7145   -0.4125    0.0000 C   0  0  0  0  0  0  0  0  0  0  0  0
    4.2868   -1.6500    0.0000 S   0  0  0  0  0  0  0  0  0  0  0  0
    5.0013   -2.0625    0.0000 O   0  0  0  0  0  0  0  0  0  0  0  0
    3.8743   -2.3645    0.0000 O   0  0  0  0  0  0  0  0  0  0  0  0
    4.6993   -0.9355    0.0000 N   0  0  0  0  0  0  0  0  0  0  0  0
  1  2  1  0  0  0  0
  2  3  1  0  0  0  0
  3  4  1  0  0  0  0
  4  5  4  0  0  0  0
  5  6  4  0  0  0  0
  6  7  1  0  0  0  0
  6  8  4  0  0  0  0
  8  9  4  0  0  0  0
  9 10  4  0  0  0  0
  4 10  4  0  0  0  0
 10 11  1  0  0  0  0
 11 12  2  0  0  0  0
 11 13  1  0  0  0  0
  2 13  1  0  0  0  0
 13 14  1  0  0  0  0
 14 15  4  0  0  0  0
 15 16  4  0  0  0  0
 16 17  4  0  0  0  0
 17 18  4  0  0  0  0
 18 19  4  0  0  0  0
 14 19  4  0  0  0  0
 19 20  1  0  0  0  0
  8 21  1  0  0  0  0
 21 22  2  0  0  0  0
 21 23  2  0  0  0  0
 21 24  1  0  0  0  0
M  END

> <ChembankId>
918

> <SMILES>
CC1Nc2cc(Cl)c(cc2C(=O)N1c3ccccc3C)S(=O)(=O)N

> <InChI>
1/C16H16ClN3O3S/c1-9-5-3-4-6-14(9)20-10(2)19-13-8-12(17)15(24(18,22)23)7-11(13)16(20)21/h3-8,10,19H,1-2H3,(H2,18,22,23)

$$$$
919
  Marvin  11101114192D          

 20 22  0  0  0  0            999 V2000
    0.6538   -2.1269    0.0000 C   0  0  0  0  0  0  0  0  0  0  0  0
   -0.1712   -2.1269    0.0000 O   0  0  0  0  0  0  0  0  0  0  0  0
   -0.5837   -1.4124    0.0000 C   0  0  0  0  0  0  0  0  0  0  0  0
   -1.4087   -1.4124    0.0000 C   0  0  0  0  0  0  0  0  0  0  0  0
   -1.8212   -0.6979    0.0000 C   0  0  0  0  0  0  0  0  0  0  0  0
   -1.4087    0.0165    0.0000 C   0  0  0  0  0  0  0  0  0  0  0  0
   -0.5837    0.0165    0.0000 C   0  0  0  0  0  0  0  0  0  0  0  0
   -0.1712   -0.6979    0.0000 C   0  0  0  0  0  0  0  0  0  0  0  0
    0.6538   -0.6979    0.0000 C   0  0  0  0  0  0  0  0  0  0  0  0
    1.1387   -0.0305    0.0000 N   0  0  0  0  0  0  0  0  0  0  0  0
    1.9233   -0.2854    0.0000 C   0  0  0  0  0  0  0  0  0  0  0  0
    2.6378    0.1271    0.0000 C   0  0  0  0  0  0  0  0  0  0  0  0
    3.3523   -0.2854    0.0000 C   0  0  0  0  0  0  0  0  0  0  0  0
    3.3523   -1.1104    0.0000 C   0  0  0  0  0  0  0  0  0  0  0  0
    2.6378   -1.5229    0.0000 N   0  0  0  0  0  0  0  0  0  0  0  0
    1.9233   -1.1104    0.0000 C   0  0  0  0  0  0  0  0  0  0  0  0
    1.1387   -1.3654    0.0000 N   0  0  0  0  0  0  0  0  0  0  0  0
   -2.6462   -0.6979    0.0000 S   0  0  0  0  0  0  0  0  0  0  0  0
   -3.0587   -1.4124    0.0000 O   0  0  0  0  0  0  0  0  0  0  0  0
   -3.0587    0.0165    0.0000 C   0  0  0  0  0  0  0  0  0  0  0  0
  1  2  1  0  0  0  0
  2  3  1  0  0  0  0
  3  4  4  0  0  0  0
  4  5  4  0  0  0  0
  5  6  4  0  0  0  0
  6  7  4  0  0  0  0
  7  8  4  0  0  0  0
  3  8  4  0  0  0  0
  8  9  1  0  0  0  0
  9 10  4  0  0  0  0
 10 11  4  0  0  0  0
 11 12  4  0  0  0  0
 12 13  4  0  0  0  0
 13 14  4  0  0  0  0
 14 15  4  0  0  0  0
 15 16  4  0  0  0  0
 11 16  4  0  0  0  0
 16 17  4  0  0  0  0
  9 17  4  0  0  0  0
  5 18  1  0  0  0  0
 18 19  2  0  0  0  0
 18 20  1  0  0  0  0
M  STY  1   1 DAT
M  SAL   1  1  17
M  SDT   1 MRV_IMPLICIT_H                                        
M  SDD   1     0.0000    0.0000    DR    ALL  0       0  
M  SED   1 IMPL_H1
M  END

> <ChembankId>
919

> <SMILES>
COc1cc(ccc1c2nc3cccnc3[nH]2)S(=O)C

> <InChI>
1/C14H13N3O2S/c1-19-12-8-9(20(2)18)5-6-10(12)13-16-11-4-3-7-15-14(11)17-13/h3-8H,1-2H3,(H,15,16,17)

$$$$
920
  Marvin  11101114192D          

 23 24  0  0  0  0            999 V2000
    3.4656   -1.2991    0.0000 C   0  0  0  0  0  0  0  0  0  0  0  0
    2.7512   -1.7116    0.0000 C   0  0  0  0  0  0  0  0  0  0  0  0
    2.7512   -2.5366    0.0000 N   0  0  0  0  0  0  0  0  0  0  0  0
    3.4186   -3.0215    0.0000 C   0  0  0  0  0  0  0  0  0  0  0  0
    3.1637   -3.8062    0.0000 C   0  0  0  0  0  0  0  0  0  0  0  0
    2.3387   -3.8062    0.0000 C   0  0  0  0  0  0  0  0  0  0  0  0
    2.0837   -3.0215    0.0000 C   0  0  0  0  0  0  0  0  0  0  0  0
    1.2991   -2.7666    0.0000 C   0  0  0  0  0  0  0  0  0  0  0  0
    1.1276   -1.9596    0.0000 N   0  0  0  0  0  0  0  0  0  0  0  0
    0.3430   -1.7047    0.0000 C   0  0  0  0  0  0  0  0  0  0  0  0
   -0.2701   -2.2567    0.0000 O   0  0  0  0  0  0  0  0  0  0  0  0
    0.1714   -0.8977    0.0000 C   0  0  0  0  0  0  0  0  0  0  0  0
   -0.6132   -0.6428    0.0000 C   0  0  0  0  0  0  0  0  0  0  0  0
   -0.7847    0.1642    0.0000 C   0  0  0  0  0  0  0  0  0  0  0  0
   -0.1716    0.7162    0.0000 C   0  0  0  0  0  0  0  0  0  0  0  0
    0.6130    0.4613    0.0000 C   0  0  0  0  0  0  0  0  0  0  0  0
    0.7845   -0.3457    0.0000 C   0  0  0  0  0  0  0  0  0  0  0  0
    1.5692   -0.6006    0.0000 O   0  0  0  0  0  0  0  0  0  0  0  0
    1.7407   -1.4076    0.0000 C   0  0  0  0  0  0  0  0  0  0  0  0
   -1.5693    0.4191    0.0000 S   0  0  0  0  0  0  0  0  0  0  0  0
   -2.3540    0.6741    0.0000 O   0  0  0  0  0  0  0  0  0  0  0  0
   -1.3144    1.2038    0.0000 O   0  0  0  0  0  0  0  0  0  0  0  0
   -1.8243   -0.3655    0.0000 N   0  0  0  0  0  0  0  0  0  0  0  0
  1  2  1  0  0  0  0
  2  3  1  0  0  0  0
  3  4  1  0  0  0  0
  4  5  1  0  0  0  0
  5  6  1  0  0  0  0
  6  7  1  0  0  0  0
  3  7  1  0  0  0  0
  7  8  1  0  0  0  0
  8  9  1  0  0  0  0
  9 10  1  0  0  0  0
 10 11  2  0  0  0  0
 10 12  1  0  0  0  0
 12 13  4  0  0  0  0
 13 14  4  0  0  0  0
 14 15  4  0  0  0  0
 15 16  4  0  0  0  0
 16 17  4  0  0  0  0
 12 17  4  0  0  0  0
 17 18  1  0  0  0  0
 18 19  1  0  0  0  0
 14 20  1  0  0  0  0
 20 21  2  0  0  0  0
 20 22  2  0  0  0  0
 20 23  1  0  0  0  0
M  END

> <ChembankId>
920

> <SMILES>
CCN1CCCC1CNC(=O)c2cc(ccc2OC)S(=O)(=O)N

> <InChI>
1/C15H23N3O4S/c1-3-18-8-4-5-11(18)10-17-15(19)13-9-12(23(16,20)21)6-7-14(13)22-2/h6-7,9,11H,3-5,8,10H2,1-2H3,(H,17,19)(H2,16,20,21)

$$$$
922
  Marvin  11101114192D          

 24 24  0  0  0  0            999 V2000
   -6.4895    3.4914    0.0000 C   0  0  0  0  0  0  0  0  0  0  0  0
   -5.6645    3.4914    0.0000 C   0  0  0  0  0  0  0  0  0  0  0  0
   -5.2520    2.7770    0.0000 C   0  0  0  0  0  0  0  0  0  0  0  0
   -4.4270    2.7770    0.0000 C   0  0  0  0  0  0  0  0  0  0  0  0
   -4.0145    2.0625    0.0000 C   0  0  0  0  0  0  0  0  0  0  0  0
   -4.4270    1.3480    0.0000 C   0  0  0  0  0  0  0  0  0  0  0  0
   -4.0145    0.6336    0.0000 C   0  0  0  0  0  0  0  0  0  0  0  0
   -3.1895    2.0625    0.0000 C   0  0  0  0  0  0  0  0  0  0  0  0
   -2.7770    1.3480    0.0000 N   0  0  0  0  0  0  0  0  0  0  0  0
   -1.9520    1.3480    0.0000 C   0  0  0  0  0  0  0  0  0  0  0  0
   -1.5395    0.6336    0.0000 N   0  0  0  0  0  0  0  0  0  0  0  0
   -0.7145    0.6336    0.0000 C   0  0  0  0  0  0  0  0  0  0  0  0
   -0.3020    1.3480    0.0000 C   0  0  0  0  0  0  0  0  0  0  0  0
   -0.7145    2.0625    0.0000 C   0  0  0  0  0  0  0  0  0  0  0  0
   -0.3020    2.7770    0.0000 C   0  0  0  0  0  0  0  0  0  0  0  0
    0.5230    1.3480    0.0000 C   0  0  0  0  0  0  0  0  0  0  0  0
    0.9355    2.0625    0.0000 C   0  0  0  0  0  0  0  0  0  0  0  0
    1.7605    2.0625    0.0000 C   0  0  0  0  0  0  0  0  0  0  0  0
    2.1730    2.7770    0.0000 C   0  0  0  0  0  0  0  0  0  0  0  0
   -1.9520   -0.0809    0.0000 C   0  0  0  0  0  0  0  0  0  0  0  0
   -2.7770   -0.0809    0.0000 C   0  0  0  0  0  0  0  0  0  0  0  0
   -2.6337   -0.8934    0.0000 C   0  0  0  0  0  0  0  0  0  0  0  0
   -3.5522   -0.3631    0.0000 N   0  0  0  0  0  0  0  0  0  0  0  0
   -3.1895    0.6336    0.0000 C   0  0  0  0  0  0  0  0  0  0  0  0
  1  2  1  0  0  0  0
  2  3  1  0  0  0  0
  3  4  1  0  0  0  0
  4  5  1  0  0  0  0
  5  6  1  0  0  0  0
  6  7  1  0  0  0  0
  5  8  1  0  0  0  0
  8  9  1  0  0  0  0
  9 10  1  0  0  0  0
 10 11  1  0  0  0  0
 11 12  1  0  0  0  0
 12 13  1  0  0  0  0
 13 14  1  0  0  0  0
 14 15  1  0  0  0  0
 13 16  1  0  0  0  0
 16 17  1  0  0  0  0
 17 18  1  0  0  0  0
 18 19  1  0  0  0  0
 11 20  1  0  0  0  0
 20 21  1  0  0  0  0
 21 22  1  0  0  0  0
 21 23  1  0  0  0  0
 21 24  1  0  0  0  0
  9 24  1  0  0  0  0
M  END

> <ChembankId>
922

> <SMILES>
CCCCC(CC)CN1CN(CC(CC)CCCC)CC(C)(N)C1

> <InChI>
1/C21H45N3/c1-6-10-12-19(8-3)14-23-16-21(5,22)17-24(18-23)15-20(9-4)13-11-7-2/h19-20H,6-18,22H2,1-5H3

$$$$
923
  Marvin  11101114192D          

 11 11  0  0  0  0            999 V2000
    2.9760    1.9462    0.0000 N   0  0  0  0  0  0  0  0  0  0  0  0
    2.1913    1.6913    0.0000 C   0  0  0  0  0  0  0  0  0  0  0  0
    1.5783    2.2433    0.0000 O   0  0  0  0  0  0  0  0  0  0  0  0
    2.0198    0.8843    0.0000 N   0  0  0  0  0  0  0  0  0  0  0  0
    1.2352    0.6294    0.0000 C   0  0  0  0  0  0  0  0  0  0  0  0
    0.9803   -0.1553    0.0000 N   0  0  0  0  0  0  0  0  0  0  0  0
    0.1553   -0.1553    0.0000 C   0  0  0  0  0  0  0  0  0  0  0  0
   -0.3297   -0.8227    0.0000 O   0  0  0  0  0  0  0  0  0  0  0  0
   -0.0997    0.6294    0.0000 N   0  0  0  0  0  0  0  0  0  0  0  0
    0.5678    1.1143    0.0000 C   0  0  0  0  0  0  0  0  0  0  0  0
    0.5678    1.9393    0.0000 O   0  0  0  0  0  0  0  0  0  0  0  0
  1  2  1  0  0  0  0
  2  3  2  0  0  0  0
  2  4  1  0  0  0  0
  4  5  1  0  0  0  0
  5  6  1  0  0  0  0
  6  7  1  0  0  0  0
  7  8  2  0  0  0  0
  7  9  1  0  0  0  0
  9 10  1  0  0  0  0
  5 10  1  0  0  0  0
 10 11  2  0  0  0  0
M  END

> <ChembankId>
923

> <SMILES>
NC(=O)NC1NC(=O)NC1=O

> <InChI>
1/C4H6N4O3/c5-3(10)6-1-2(9)8-4(11)7-1/h1H,(H3,5,6,10)(H2,7,8,9,11)

$$$$
927
  Marvin  11101114192D          

 24 26  0  0  1  0            999 V2000
    0.5269   -3.8475    0.0000 C   0  0  0  0  0  0  0  0  0  0  0  0
   -0.0862   -3.2955    0.0000 N   0  0  0  0  0  0  0  0  0  0  0  0
   -0.8932   -3.4670    0.0000 C   0  0  0  0  0  0  0  0  0  0  0  0
   -1.3057   -2.7525    0.0000 C   0  0  0  0  0  0  0  0  0  0  0  0
   -0.7537   -2.1394    0.0000 C   0  0  0  0  0  0  0  0  0  0  0  0
    0.0000   -2.4750    0.0000 C   0  0  2  0  0  0  0  0  0  0  0  0
    0.7145   -2.0625    0.0000 C   0  0  0  0  0  0  0  0  0  0  0  0
    1.4289   -2.4750    0.0000 C   0  0  0  0  0  0  0  0  0  0  0  0
    2.1434   -2.0625    0.0000 O   0  0  0  0  0  0  0  0  0  0  0  0
    2.8579   -2.4750    0.0000 C   0  0  2  0  0  0  0  0  0  0  0  0
    2.4454   -3.1895    0.0000 C   0  0  0  0  0  0  0  0  0  0  0  0
    3.2704   -1.7605    0.0000 C   0  0  0  0  0  0  0  0  0  0  0  0
    2.8579   -1.0461    0.0000 C   0  0  0  0  0  0  0  0  0  0  0  0
    3.2704   -0.3316    0.0000 C   0  0  0  0  0  0  0  0  0  0  0  0
    4.0954   -0.3316    0.0000 C   0  0  0  0  0  0  0  0  0  0  0  0
    4.5079   -1.0461    0.0000 C   0  0  0  0  0  0  0  0  0  0  0  0
    4.0954   -1.7605    0.0000 C   0  0  0  0  0  0  0  0  0  0  0  0
    3.5724   -2.8875    0.0000 C   0  0  0  0  0  0  0  0  0  0  0  0
    4.2868   -2.4750    0.0000 C   0  0  0  0  0  0  0  0  0  0  0  0
    5.0013   -2.8875    0.0000 C   0  0  0  0  0  0  0  0  0  0  0  0
    5.0013   -3.7125    0.0000 C   0  0  0  0  0  0  0  0  0  0  0  0
    5.7158   -4.1250    0.0000 Cl  0  0  0  0  0  0  0  0  0  0  0  0
    4.2868   -4.1250    0.0000 C   0  0  0  0  0  0  0  0  0  0  0  0
    3.5724   -3.7125    0.0000 C   0  0  0  0  0  0  0  0  0  0  0  0
  1  2  1  0  0  0  0
  2  3  1  0  0  0  0
  3  4  1  0  0  0  0
  4  5  1  0  0  0  0
  5  6  1  0  0  0  0
  2  6  1  0  0  0  0
  6  7  1  6  0  0  0
  7  8  1  0  0  0  0
  8  9  1  0  0  0  0
 10  9  1  6  0  0  0
 10 11  1  1  0  0  0
 10 12  1  0  0  0  0
 12 13  4  0  0  0  0
 13 14  4  0  0  0  0
 14 15  4  0  0  0  0
 15 16  4  0  0  0  0
 16 17  4  0  0  0  0
 12 17  4  0  0  0  0
 10 18  1  0  0  0  0
 18 19  4  0  0  0  0
 19 20  4  0  0  0  0
 20 21  4  0  0  0  0
 21 22  1  0  0  0  0
 21 23  4  0  0  0  0
 23 24  4  0  0  0  0
 18 24  4  0  0  0  0
M  END

> <ChembankId>
927

> <SMILES>
CN1CCC[C@@H]1CCO[C@](C)(c2ccccc2)c3ccc(Cl)cc3

> <InChI>
1/C21H26ClNO/c1-21(17-7-4-3-5-8-17,18-10-12-19(22)13-11-18)24-16-14-20-9-6-15-23(20)2/h3-5,7-8,10-13,20H,6,9,14-16H2,1-2H3

$$$$
931
  Marvin  11101114192D          

 17 18  0  0  0  0            999 V2000
   -2.1434   -2.0625    0.0000 N   0  0  0  0  0  0  0  0  0  0  0  0
   -1.4289   -1.6500    0.0000 S   0  0  0  0  0  0  0  0  0  0  0  0
   -1.0164   -2.3645    0.0000 O   0  0  0  0  0  0  0  0  0  0  0  0
   -1.8414   -0.9355    0.0000 O   0  0  0  0  0  0  0  0  0  0  0  0
   -0.7145   -1.2375    0.0000 C   0  0  0  0  0  0  0  0  0  0  0  0
    0.0000   -1.6500    0.0000 C   0  0  0  0  0  0  0  0  0  0  0  0
    0.7145   -1.2375    0.0000 C   0  0  0  0  0  0  0  0  0  0  0  0
    0.7145   -0.4125    0.0000 C   0  0  0  0  0  0  0  0  0  0  0  0
    1.4289   -0.0000    0.0000 N   0  0  0  0  0  0  0  0  0  0  0  0
    2.1434   -0.4125    0.0000 C   0  0  0  0  0  0  0  0  0  0  0  0
    2.1434   -1.2375    0.0000 N   0  0  0  0  0  0  0  0  0  0  0  0
    1.4289   -1.6500    0.0000 S   0  0  0  0  0  0  0  0  0  0  0  0
    1.8163   -2.3784    0.0000 O   0  0  0  0  0  0  0  0  0  0  0  0
    1.0416   -2.3784    0.0000 O   0  0  0  0  0  0  0  0  0  0  0  0
    0.0000   -0.0000    0.0000 C   0  0  0  0  0  0  0  0  0  0  0  0
   -0.7145   -0.4125    0.0000 C   0  0  0  0  0  0  0  0  0  0  0  0
   -1.4289    0.0000    0.0000 Cl  0  0  0  0  0  0  0  0  0  0  0  0
  1  2  1  0  0  0  0
  2  3  2  0  0  0  0
  2  4  2  0  0  0  0
  2  5  1  0  0  0  0
  5  6  4  0  0  0  0
  6  7  4  0  0  0  0
  7  8  4  0  0  0  0
  8  9  1  0  0  0  0
  9 10  1  0  0  0  0
 10 11  1  0  0  0  0
 11 12  1  0  0  0  0
  7 12  1  0  0  0  0
 12 13  2  0  0  0  0
 12 14  2  0  0  0  0
  8 15  4  0  0  0  0
 15 16  4  0  0  0  0
  5 16  4  0  0  0  0
 16 17  1  0  0  0  0
M  END

> <ChembankId>
931

> <SMILES>
NS(=O)(=O)c1cc2c(NCNS2(=O)=O)cc1Cl

> <InChI>
1/C7H8ClN3O4S2/c8-4-1-5-7(2-6(4)16(9,12)13)17(14,15)11-3-10-5/h1-2,10-11H,3H2,(H2,9,12,13)

$$$$
933
  Marvin  11101114192D          

 22 25  0  0  1  0            999 V2000
    0.0773    0.5912    0.0000 C   0  0  0  0  0  0  0  0  0  0  0  0
    0.4999   -0.1173    0.0000 N   0  0  0  0  0  0  0  0  0  0  0  0
    1.0605   -0.5572    0.0000 C   0  0  0  0  0  0  0  0  0  0  0  0
    1.9893   -0.5417    0.0000 C   0  0  0  0  0  0  0  0  0  0  0  0
    2.1275   -1.3591    0.0000 C   0  0  1  0  0  0  0  0  0  0  0  0
    1.6113   -0.9304    0.0000 C   0  0  0  0  0  0  0  0  0  0  0  0
    0.6396   -0.9304    0.0000 C   0  0  1  0  0  0  0  0  0  0  0  0
    0.1197   -1.6427    0.0000 C   0  0  1  0  0  0  0  0  0  0  0  0
    0.8432   -2.0391    0.0000 O   0  0  0  0  0  0  0  0  0  0  0  0
    0.8248   -1.2143    0.0000 C   0  0  0  0  0  0  0  0  0  0  0  0
    2.5393   -2.0740    0.0000 O   0  0  0  0  0  0  0  0  0  0  0  0
    2.1261   -2.7880    0.0000 C   0  0  0  0  0  0  0  0  0  0  0  0
    1.3011   -2.7872    0.0000 O   0  0  0  0  0  0  0  0  0  0  0  0
    2.5379   -3.5029    0.0000 C   0  0  2  0  0  0  0  0  0  0  0  0
    3.3629   -3.5037    0.0000 C   0  0  0  0  0  0  0  0  0  0  0  0
    3.7747   -4.2186    0.0000 O   0  0  0  0  0  0  0  0  0  0  0  0
    2.1247   -4.2170    0.0000 C   0  0  0  0  0  0  0  0  0  0  0  0
    2.5365   -4.9319    0.0000 C   0  0  0  0  0  0  0  0  0  0  0  0
    2.1233   -5.6459    0.0000 C   0  0  0  0  0  0  0  0  0  0  0  0
    1.2983   -5.6451    0.0000 C   0  0  0  0  0  0  0  0  0  0  0  0
    0.8865   -4.9302    0.0000 C   0  0  0  0  0  0  0  0  0  0  0  0
    1.2997   -4.2162    0.0000 C   0  0  0  0  0  0  0  0  0  0  0  0
  1  2  1  0  0  0  0
  2  3  1  0  0  0  0
  3  4  1  0  0  0  0
  4  5  1  0  0  0  0
  5  6  1  0  0  0  0
  7  6  1  1  0  0  0
  2  7  1  0  0  0  0
  7  8  1  0  0  0  0
  8  9  1  6  0  0  0
  9 10  1  0  0  0  0
  8 10  1  0  0  0  0
  3 10  1  0  0  0  0
  5 11  1  6  0  0  0
 11 12  1  0  0  0  0
 12 13  2  0  0  0  0
 12 14  1  0  0  0  0
 14 15  1  0  0  0  0
 15 16  1  0  0  0  0
 14 17  1  6  0  0  0
 17 18  4  0  0  0  0
 18 19  4  0  0  0  0
 19 20  4  0  0  0  0
 20 21  4  0  0  0  0
 21 22  4  0  0  0  0
 17 22  4  0  0  0  0
M  END

> <ChembankId>
933

> <SMILES>
CN1C2C[C@@H](C[C@H]1[C@H]3OC32)OC(=O)[C@H](CO)c4ccccc4

> <InChI>
1/C17H21NO4/c1-18-13-7-11(8-14(18)16-15(13)22-16)21-17(20)12(9-19)10-5-3-2-4-6-10/h2-6,11-16,19H,7-9H2,1H3

$$$$
935
  Marvin  11101114192D          

 51 53  0  0  1  0            999 V2000
   -2.1197    4.8821    0.0000 C   0  0  0  0  0  0  0  0  0  0  0  0
   -2.6249    4.1901    0.0000 C   0  0  0  0  0  0  0  0  0  0  0  0
   -2.8579    3.3000    0.0000 C   0  0  1  0  0  0  0  0  0  0  0  0
   -2.1434    3.7125    0.0000 O   0  0  0  0  0  0  0  0  0  0  0  0
   -1.4289    3.3000    0.0000 C   0  0  0  0  0  0  0  0  0  0  0  0
   -1.0144    4.0382    0.0000 O   0  0  0  0  0  0  0  0  0  0  0  0
   -1.4289    2.4750    0.0000 C   0  0  2  0  0  0  0  0  0  0  0  0
   -0.4226    2.4719    0.0000 C   0  0  0  0  0  0  0  0  0  0  0  0
   -2.1434    2.0625    0.0000 C   0  0  1  0  0  0  0  0  0  0  0  0
   -1.4165    1.6541    0.0000 O   0  0  0  0  0  0  0  0  0  0  0  0
   -0.7145    2.0625    0.0000 C   0  0  1  0  0  0  0  0  0  0  0  0
   -0.7145    2.8875    0.0000 C   0  0  0  0  0  0  0  0  0  0  0  0
   -0.0000    3.3000    0.0000 C   0  0  1  0  0  0  0  0  0  0  0  0
   -0.5303    3.9320    0.0000 C   0  0  0  0  0  0  0  0  0  0  0  0
    0.5303    3.9320    0.0000 O   0  0  0  0  0  0  0  0  0  0  0  0
    1.3428    3.7887    0.0000 C   0  0  0  0  0  0  0  0  0  0  0  0
    0.7145    2.8875    0.0000 C   0  0  1  0  0  0  0  0  0  0  0  0
    1.4289    3.3000    0.0000 O   0  0  0  0  0  0  0  0  0  0  0  0
    0.7145    2.0625    0.0000 C   0  0  2  0  0  0  0  0  0  0  0  0
    1.4289    1.6500    0.0000 C   0  0  0  0  0  0  0  0  0  0  0  0
   -0.0000    1.6500    0.0000 O   0  0  0  0  0  0  0  0  0  0  0  0
   -2.1434    1.2375    0.0000 C   0  0  2  0  0  0  0  0  0  0  0  0
   -1.4190    0.8232    0.0000 C   0  0  0  0  0  0  0  0  0  0  0  0
   -2.8579    0.8250    0.0000 C   0  0  1  0  0  0  0  0  0  0  0  0
   -2.8737   -0.0131    0.0000 O   0  0  0  0  0  0  0  0  0  0  0  0
   -2.1434   -0.4125    0.0000 C   0  0  2  0  0  0  0  0  0  0  0  0
   -1.4289    0.0000    0.0000 O   0  0  0  0  0  0  0  0  0  0  0  0
   -0.7145   -0.4125    0.0000 C   0  0  2  0  0  0  0  0  0  0  0  0
   -0.0000    0.0000    0.0000 C   0  0  0  0  0  0  0  0  0  0  0  0
   -0.7145   -1.2375    0.0000 C   0  0  0  0  0  0  0  0  0  0  0  0
   -1.4289   -1.6500    0.0000 C   0  0  1  0  0  0  0  0  0  0  0  0
   -2.1434   -1.2375    0.0000 C   0  0  1  0  0  0  0  0  0  0  0  0
   -2.8366   -1.7136    0.0000 O   0  0  0  0  0  0  0  0  0  0  0  0
   -1.4289   -2.4750    0.0000 N   0  0  0  0  0  0  0  0  0  0  0  0
   -0.7145   -2.8875    0.0000 C   0  0  0  0  0  0  0  0  0  0  0  0
   -2.1434   -2.8875    0.0000 C   0  0  0  0  0  0  0  0  0  0  0  0
   -3.5724    1.2375    0.0000 C   0  0  2  0  0  0  0  0  0  0  0  0
   -3.6106    0.3586    0.0000 C   0  0  0  0  0  0  0  0  0  0  0  0
   -4.1790    0.4500    0.0000 O   0  0  0  0  0  0  0  0  0  0  0  0
   -4.2868    0.8250    0.0000 C   0  0  0  0  0  0  0  0  0  0  0  0
   -5.0013    1.2375    0.0000 C   0  0  1  0  0  0  0  0  0  0  0  0
   -5.7353    0.8126    0.0000 C   0  0  0  0  0  0  0  0  0  0  0  0
   -5.0013    2.0625    0.0000 C   0  0  0  0  0  0  0  0  0  0  0  0
   -5.7626    2.4295    0.0000 O   0  0  0  0  0  0  0  0  0  0  0  0
   -4.2868    2.4750    0.0000 C   0  0  2  0  0  0  0  0  0  0  0  0
   -3.4564    2.3524    0.0000 C   0  0  0  0  0  0  0  0  0  0  0  0
   -4.2868    3.3000    0.0000 C   0  0  1  0  0  0  0  0  0  0  0  0
   -5.0551    3.7210    0.0000 O   0  0  0  0  0  0  0  0  0  0  0  0
   -3.5724    3.7125    0.0000 C   0  0  1  0  0  0  0  0  0  0  0  0
   -4.0344    4.4560    0.0000 C   0  0  0  0  0  0  0  0  0  0  0  0
   -3.7709    4.5776    0.0000 O   0  0  0  0  0  0  0  0  0  0  0  0
  1  2  1  0  0  0  0
  3  2  1  6  0  0  0
  3  4  1  0  0  0  0
  4  5  1  0  0  0  0
  5  6  2  0  0  0  0
  5  7  1  0  0  0  0
  7  8  1  6  0  0  0
  7  9  1  0  0  0  0
  9 10  1  6  0  0  0
 11 10  1  1  0  0  0
 11 12  1  0  0  0  0
 12 13  1  0  0  0  0
 13 14  1  6  0  0  0
 13 15  1  1  0  0  0
 15 16  1  0  0  0  0
 13 17  1  0  0  0  0
 17 18  1  1  0  0  0
 17 19  1  0  0  0  0
 19 20  1  6  0  0  0
 19 21  1  0  0  0  0
 11 21  1  0  0  0  0
  9 22  1  0  0  0  0
 22 23  1  6  0  0  0
 22 24  1  0  0  0  0
 24 25  1  1  0  0  0
 26 25  1  6  0  0  0
 26 27  1  0  0  0  0
 27 28  1  0  0  0  0
 28 29  1  6  0  0  0
 28 30  1  0  0  0  0
 30 31  1  0  0  0  0
 31 32  1  0  0  0  0
 26 32  1  0  0  0  0
 32 33  1  1  0  0  0
 31 34  1  6  0  0  0
 34 35  1  0  0  0  0
 34 36  1  0  0  0  0
 24 37  1  0  0  0  0
 37 38  1  1  0  0  0
 37 39  1  6  0  0  0
 37 40  1  0  0  0  0
 40 41  1  0  0  0  0
 41 42  1  1  0  0  0
 41 43  1  0  0  0  0
 43 44  2  0  0  0  0
 43 45  1  0  0  0  0
 45 46  1  1  0  0  0
 45 47  1  0  0  0  0
 47 48  1  1  0  0  0
 47 49  1  0  0  0  0
  3 49  1  0  0  0  0
 49 50  1  1  0  0  0
 49 51  1  6  0  0  0
M  END

> <ChembankId>
935

> <SMILES>
CC[C@H]1OC(=O)[C@H](C)[C@@H](O[C@H]2C[C@@](C)(OC)[C@@H](O)[C@H](C)O2)[C@H](C)[C@@H](O[C@@H]3O[C@H](C)C[C@@H]([C@H]3O)N(C)C)[C@](C)(O)C[C@@H](C)C(=O)[C@H](C)[C@@H](O)[C@]1(C)O

> <InChI>
1/C37H67NO13/c1-14-25-37(10,45)30(41)20(4)27(39)18(2)16-35(8,44)32(51-34-28(40)24(38(11)12)15-19(3)47-34)21(5)29(22(6)33(43)49-25)50-26-17-36(9,46-13)31(42)23(7)48-26/h18-26,28-32,34,40-42,44-45H,14-17H2,1-13H3

$$$$
939
  Marvin  11101114192D          

 18 19  0  0  0  0            999 V2000
   -0.7145   -0.4125    0.0000 C   0  0  0  0  0  0  0  0  0  0  0  0
   -0.7145   -1.2375    0.0000 C   0  0  0  0  0  0  0  0  0  0  0  0
   -1.4289   -1.6500    0.0000 C   0  0  0  0  0  0  0  0  0  0  0  0
   -1.4289   -2.4750    0.0000 C   0  0  0  0  0  0  0  0  0  0  0  0
   -0.7145   -2.8875    0.0000 C   0  0  0  0  0  0  0  0  0  0  0  0
    0.0000   -2.4750    0.0000 C   0  0  0  0  0  0  0  0  0  0  0  0
    0.7145   -2.8875    0.0000 N   0  0  0  0  0  0  0  0  0  0  0  0
    1.4289   -2.4750    0.0000 C   0  0  0  0  0  0  0  0  0  0  0  0
    1.4289   -1.6500    0.0000 C   0  0  0  0  0  0  0  0  0  0  0  0
    2.1434   -1.2375    0.0000 C   0  0  0  0  0  0  0  0  0  0  0  0
    2.8579   -1.6500    0.0000 C   0  0  0  0  0  0  0  0  0  0  0  0
    2.8579   -2.4750    0.0000 C   0  0  0  0  0  0  0  0  0  0  0  0
    2.1434   -2.8875    0.0000 C   0  0  0  0  0  0  0  0  0  0  0  0
    2.1434   -3.7125    0.0000 C   0  0  0  0  0  0  0  0  0  0  0  0
    1.4289   -4.1250    0.0000 O   0  0  0  0  0  0  0  0  0  0  0  0
    2.8579   -4.1250    0.0000 O   0  0  0  0  0  0  0  0  0  0  0  0
    0.0000   -1.6500    0.0000 C   0  0  0  0  0  0  0  0  0  0  0  0
    0.7145   -1.2375    0.0000 C   0  0  0  0  0  0  0  0  0  0  0  0
  1  2  1  0  0  0  0
  2  3  4  0  0  0  0
  3  4  4  0  0  0  0
  4  5  4  0  0  0  0
  5  6  4  0  0  0  0
  6  7  1  0  0  0  0
  7  8  1  0  0  0  0
  8  9  4  0  0  0  0
  9 10  4  0  0  0  0
 10 11  4  0  0  0  0
 11 12  4  0  0  0  0
 12 13  4  0  0  0  0
  8 13  4  0  0  0  0
 13 14  1  0  0  0  0
 14 15  2  0  0  0  0
 14 16  1  0  0  0  0
  6 17  4  0  0  0  0
  2 17  4  0  0  0  0
 17 18  1  0  0  0  0
M  END

> <ChembankId>
939

> <SMILES>
Cc1cccc(Nc2ccccc2C(=O)O)c1C

> <InChI>
1/C15H15NO2/c1-10-6-5-9-13(11(10)2)16-14-8-4-3-7-12(14)15(17)18/h3-9,16H,1-2H3,(H,17,18)

$$$$
943
  Marvin  11101114192D          

 24 26  0  0  0  0            999 V2000
    2.1434    1.2375    0.0000 C   0  0  0  0  0  0  0  0  0  0  0  0
    1.4289    0.8250    0.0000 C   0  0  0  0  0  0  0  0  0  0  0  0
    1.4289   -0.0000    0.0000 C   0  0  0  0  0  0  0  0  0  0  0  0
    0.7145   -0.4125    0.0000 C   0  0  0  0  0  0  0  0  0  0  0  0
    0.7145   -1.2375    0.0000 C   0  0  0  0  0  0  0  0  0  0  0  0
    1.3819   -1.7224    0.0000 C   0  0  0  0  0  0  0  0  0  0  0  0
    2.1665   -1.4675    0.0000 O   0  0  0  0  0  0  0  0  0  0  0  0
    1.1270   -2.5070    0.0000 N   0  0  0  0  0  0  0  0  0  0  0  0
    0.3020   -2.5070    0.0000 N   0  0  0  0  0  0  0  0  0  0  0  0
    0.0470   -1.7224    0.0000 C   0  0  0  0  0  0  0  0  0  0  0  0
   -0.7376   -1.4675    0.0000 O   0  0  0  0  0  0  0  0  0  0  0  0
   -0.1830   -3.1745    0.0000 C   0  0  0  0  0  0  0  0  0  0  0  0
    0.1526   -3.9282    0.0000 C   0  0  0  0  0  0  0  0  0  0  0  0
   -0.3323   -4.5956    0.0000 C   0  0  0  0  0  0  0  0  0  0  0  0
   -1.1528   -4.5094    0.0000 C   0  0  0  0  0  0  0  0  0  0  0  0
   -1.6377   -5.1768    0.0000 O   0  0  0  0  0  0  0  0  0  0  0  0
   -1.4884   -3.7557    0.0000 C   0  0  0  0  0  0  0  0  0  0  0  0
   -1.0034   -3.0882    0.0000 C   0  0  0  0  0  0  0  0  0  0  0  0
    1.6119   -3.1745    0.0000 C   0  0  0  0  0  0  0  0  0  0  0  0
    2.4324   -3.0882    0.0000 C   0  0  0  0  0  0  0  0  0  0  0  0
    2.9173   -3.7557    0.0000 C   0  0  0  0  0  0  0  0  0  0  0  0
    2.5817   -4.5094    0.0000 C   0  0  0  0  0  0  0  0  0  0  0  0
    1.7613   -4.5956    0.0000 C   0  0  0  0  0  0  0  0  0  0  0  0
    1.2763   -3.9282    0.0000 C   0  0  0  0  0  0  0  0  0  0  0  0
  1  2  1  0  0  0  0
  2  3  1  0  0  0  0
  3  4  1  0  0  0  0
  4  5  1  0  0  0  0
  5  6  1  0  0  0  0
  6  7  2  0  0  0  0
  6  8  1  0  0  0  0
  8  9  1  0  0  0  0
  9 10  1  0  0  0  0
  5 10  1  0  0  0  0
 10 11  2  0  0  0  0
  9 12  1  0  0  0  0
 12 13  4  0  0  0  0
 13 14  4  0  0  0  0
 14 15  4  0  0  0  0
 15 16  1  0  0  0  0
 15 17  4  0  0  0  0
 17 18  4  0  0  0  0
 12 18  4  0  0  0  0
  8 19  1  0  0  0  0
 19 20  4  0  0  0  0
 20 21  4  0  0  0  0
 21 22  4  0  0  0  0
 22 23  4  0  0  0  0
 23 24  4  0  0  0  0
 19 24  4  0  0  0  0
M  END

> <ChembankId>
943

> <SMILES>
CCCCC1C(=O)N(N(C1=O)c2ccc(O)cc2)c3ccccc3

> <InChI>
1/C19H20N2O3/c1-2-3-9-17-18(23)20(14-7-5-4-6-8-14)21(19(17)24)15-10-12-16(22)13-11-15/h4-8,10-13,17,22H,2-3,9H2,1H3

$$$$
944
  Marvin  11101114192D          

 22 24  0  0  0  0            999 V2000
    4.2868    1.6500    0.0000 N   0  0  0  0  0  0  0  0  0  0  0  0
    3.5724    1.2375    0.0000 C   0  0  0  0  0  0  0  0  0  0  0  0
    3.5724    0.4125    0.0000 C   0  0  0  0  0  0  0  0  0  0  0  0
    2.8579   -0.0000    0.0000 C   0  0  0  0  0  0  0  0  0  0  0  0
    2.1434    0.4125    0.0000 C   0  0  0  0  0  0  0  0  0  0  0  0
    2.1434    1.2375    0.0000 C   0  0  0  0  0  0  0  0  0  0  0  0
    2.8579    1.6500    0.0000 C   0  0  0  0  0  0  0  0  0  0  0  0
    1.4289   -0.0000    0.0000 S   0  0  0  0  0  0  0  0  0  0  0  0
    1.0164    0.7145    0.0000 O   0  0  0  0  0  0  0  0  0  0  0  0
    1.8414   -0.7145    0.0000 O   0  0  0  0  0  0  0  0  0  0  0  0
    0.7145   -0.4125    0.0000 N   0  0  0  0  0  0  0  0  0  0  0  0
    0.7145   -1.2375    0.0000 C   0  0  0  0  0  0  0  0  0  0  0  0
    1.3819   -1.7224    0.0000 C   0  0  0  0  0  0  0  0  0  0  0  0
    1.1270   -2.5070    0.0000 C   0  0  0  0  0  0  0  0  0  0  0  0
    0.3020   -2.5070    0.0000 N   0  0  0  0  0  0  0  0  0  0  0  0
    0.0470   -1.7224    0.0000 N   0  0  0  0  0  0  0  0  0  0  0  0
   -0.7376   -1.4675    0.0000 C   0  0  0  0  0  0  0  0  0  0  0  0
   -1.3507   -2.0195    0.0000 C   0  0  0  0  0  0  0  0  0  0  0  0
   -2.1353   -1.7646    0.0000 C   0  0  0  0  0  0  0  0  0  0  0  0
   -2.3068   -0.9576    0.0000 C   0  0  0  0  0  0  0  0  0  0  0  0
   -1.6937   -0.4056    0.0000 C   0  0  0  0  0  0  0  0  0  0  0  0
   -0.9091   -0.6605    0.0000 C   0  0  0  0  0  0  0  0  0  0  0  0
  1  2  1  0  0  0  0
  2  3  4  0  0  0  0
  3  4  4  0  0  0  0
  4  5  4  0  0  0  0
  5  6  4  0  0  0  0
  6  7  4  0  0  0  0
  2  7  4  0  0  0  0
  5  8  1  0  0  0  0
  8  9  2  0  0  0  0
  8 10  2  0  0  0  0
  8 11  1  0  0  0  0
 11 12  1  0  0  0  0
 12 13  4  0  0  0  0
 13 14  4  0  0  0  0
 14 15  4  0  0  0  0
 15 16  4  0  0  0  0
 12 16  4  0  0  0  0
 16 17  1  0  0  0  0
 17 18  4  0  0  0  0
 18 19  4  0  0  0  0
 19 20  4  0  0  0  0
 20 21  4  0  0  0  0
 21 22  4  0  0  0  0
 17 22  4  0  0  0  0
M  END

> <ChembankId>
944

> <SMILES>
Nc1ccc(cc1)S(=O)(=O)Nc2ccnn2c3ccccc3

> <InChI>
1/C15H14N4O2S/c16-12-6-8-14(9-7-12)22(20,21)18-15-10-11-17-19(15)13-4-2-1-3-5-13/h1-11,18H,16H2

$$$$
948
  Marvin  11101114192D          

 17 19  0  0  0  0            999 V2000
    0.8838   -2.1500    0.0000 O   0  0  0  0  0  0  0  0  0  0  0  0
    1.1387   -1.3654    0.0000 C   0  0  0  0  0  0  0  0  0  0  0  0
    0.6538   -0.6979    0.0000 C   0  0  0  0  0  0  0  0  0  0  0  0
    1.1387   -0.0305    0.0000 C   0  0  0  0  0  0  0  0  0  0  0  0
    0.8838    0.7541    0.0000 O   0  0  0  0  0  0  0  0  0  0  0  0
    1.9233   -0.2854    0.0000 C   0  0  0  0  0  0  0  0  0  0  0  0
    2.6378    0.1271    0.0000 C   0  0  0  0  0  0  0  0  0  0  0  0
    3.3523   -0.2854    0.0000 C   0  0  0  0  0  0  0  0  0  0  0  0
    3.3523   -1.1104    0.0000 C   0  0  0  0  0  0  0  0  0  0  0  0
    2.6378   -1.5229    0.0000 C   0  0  0  0  0  0  0  0  0  0  0  0
    1.9233   -1.1104    0.0000 C   0  0  0  0  0  0  0  0  0  0  0  0
   -0.1712   -0.6979    0.0000 C   0  0  0  0  0  0  0  0  0  0  0  0
   -0.5837   -1.4124    0.0000 C   0  0  0  0  0  0  0  0  0  0  0  0
   -1.4087   -1.4124    0.0000 C   0  0  0  0  0  0  0  0  0  0  0  0
   -1.8212   -0.6979    0.0000 C   0  0  0  0  0  0  0  0  0  0  0  0
   -1.4087    0.0165    0.0000 C   0  0  0  0  0  0  0  0  0  0  0  0
   -0.5837    0.0165    0.0000 C   0  0  0  0  0  0  0  0  0  0  0  0
  1  2  2  0  0  0  0
  2  3  1  0  0  0  0
  3  4  1  0  0  0  0
  4  5  2  0  0  0  0
  4  6  1  0  0  0  0
  6  7  4  0  0  0  0
  7  8  4  0  0  0  0
  8  9  4  0  0  0  0
  9 10  4  0  0  0  0
 10 11  4  0  0  0  0
  2 11  1  0  0  0  0
  6 11  4  0  0  0  0
  3 12  1  0  0  0  0
 12 13  4  0  0  0  0
 13 14  4  0  0  0  0
 14 15  4  0  0  0  0
 15 16  4  0  0  0  0
 16 17  4  0  0  0  0
 12 17  4  0  0  0  0
M  END

> <ChembankId>
948

> <SMILES>
O=C1C(C(=O)c2ccccc12)c3ccccc3

> <InChI>
1/C15H10O2/c16-14-11-8-4-5-9-12(11)15(17)13(14)10-6-2-1-3-7-10/h1-9,13H

$$$$
3256
  Marvin  11101114192D          

 21 22  0  0  0  0            999 V2000
    5.7158   -6.6000    0.0000 C   0  0  0  0  0  0  0  0  0  0  0  0
    5.0013   -6.1875    0.0000 C   0  0  0  0  0  0  0  0  0  0  0  0
    5.0013   -5.3625    0.0000 N   0  0  0  0  0  0  0  0  0  0  0  0
    4.2868   -4.9500    0.0000 C   0  0  0  0  0  0  0  0  0  0  0  0
    3.5724   -5.3625    0.0000 C   0  0  0  0  0  0  0  0  0  0  0  0
    2.8579   -4.9500    0.0000 C   0  0  0  0  0  0  0  0  0  0  0  0
    2.1434   -5.3625    0.0000 C   0  0  0  0  0  0  0  0  0  0  0  0
    2.1434   -6.1875    0.0000 C   0  0  0  0  0  0  0  0  0  0  0  0
    1.4289   -6.6000    0.0000 C   0  0  0  0  0  0  0  0  0  0  0  0
    0.7145   -6.1875    0.0000 C   0  0  0  0  0  0  0  0  0  0  0  0
    0.7145   -5.3625    0.0000 C   0  0  0  0  0  0  0  0  0  0  0  0
    1.4289   -4.9500    0.0000 C   0  0  0  0  0  0  0  0  0  0  0  0
    5.7158   -4.9500    0.0000 C   0  0  0  0  0  0  0  0  0  0  0  0
    6.4302   -5.3625    0.0000 C   0  0  0  0  0  0  0  0  0  0  0  0
    7.1447   -4.9500    0.0000 C   0  0  0  0  0  0  0  0  0  0  0  0
    7.8592   -5.3625    0.0000 C   0  0  0  0  0  0  0  0  0  0  0  0
    8.5737   -4.9500    0.0000 C   0  0  0  0  0  0  0  0  0  0  0  0
    9.2881   -5.3625    0.0000 C   0  0  0  0  0  0  0  0  0  0  0  0
    9.2881   -6.1875    0.0000 C   0  0  0  0  0  0  0  0  0  0  0  0
    8.5737   -6.6000    0.0000 C   0  0  0  0  0  0  0  0  0  0  0  0
    7.8592   -6.1875    0.0000 C   0  0  0  0  0  0  0  0  0  0  0  0
  1  2  1  0  0  0  0
  2  3  1  0  0  0  0
  3  4  1  0  0  0  0
  4  5  1  0  0  0  0
  5  6  1  0  0  0  0
  6  7  1  0  0  0  0
  7  8  4  0  0  0  0
  8  9  4  0  0  0  0
  9 10  4  0  0  0  0
 10 11  4  0  0  0  0
 11 12  4  0  0  0  0
  7 12  4  0  0  0  0
  3 13  1  0  0  0  0
 13 14  1  0  0  0  0
 14 15  1  0  0  0  0
 15 16  1  0  0  0  0
 16 17  4  0  0  0  0
 17 18  4  0  0  0  0
 18 19  4  0  0  0  0
 19 20  4  0  0  0  0
 20 21  4  0  0  0  0
 16 21  4  0  0  0  0
M  END

> <ChembankId>
3256

> <SMILES>
CCN(CCCc1ccccc1)CCCc2ccccc2

> <InChI>
1/C20H27N/c1-2-21(17-9-15-19-11-5-3-6-12-19)18-10-16-20-13-7-4-8-14-20/h3-8,11-14H,2,9-10,15-18H2,1H3

$$$$
953
  Marvin  11101114192D          

 13 13  0  0  1  0            999 V2000
    3.5724   -0.4125    0.0000 C   0  0  0  0  0  0  0  0  0  0  0  0
    2.8579   -0.0000    0.0000 C   0  0  2  0  0  0  0  0  0  0  0  0
    2.8579    0.8250    0.0000 N   0  0  0  0  0  0  0  0  0  0  0  0
    2.1434   -0.4125    0.0000 C   0  0  2  0  0  0  0  0  0  0  0  0
    2.1434   -1.2375    0.0000 O   0  0  0  0  0  0  0  0  0  0  0  0
    1.4289   -0.0000    0.0000 C   0  0  0  0  0  0  0  0  0  0  0  0
    0.7145   -0.4125    0.0000 C   0  0  0  0  0  0  0  0  0  0  0  0
    0.0000   -0.0000    0.0000 C   0  0  0  0  0  0  0  0  0  0  0  0
    0.0000    0.8250    0.0000 C   0  0  0  0  0  0  0  0  0  0  0  0
   -0.7145    1.2375    0.0000 O   0  0  0  0  0  0  0  0  0  0  0  0
    0.7145    1.2375    0.0000 C   0  0  0  0  0  0  0  0  0  0  0  0
    0.7145    2.0625    0.0000 O   0  0  0  0  0  0  0  0  0  0  0  0
    1.4289    0.8250    0.0000 C   0  0  0  0  0  0  0  0  0  0  0  0
  1  2  1  0  0  0  0
  2  3  1  1  0  0  0
  2  4  1  0  0  0  0
  4  5  1  6  0  0  0
  4  6  1  0  0  0  0
  6  7  4  0  0  0  0
  7  8  4  0  0  0  0
  8  9  4  0  0  0  0
  9 10  1  0  0  0  0
  9 11  4  0  0  0  0
 11 12  1  0  0  0  0
 11 13  4  0  0  0  0
  6 13  4  0  0  0  0
M  END

> <ChembankId>
953

> <SMILES>
C[C@H](N)[C@H](O)c1ccc(O)c(O)c1

> <InChI>
1/C9H13NO3/c1-5(10)9(13)6-2-3-7(11)8(12)4-6/h2-5,9,11-13H,10H2,1H3

$$$$
954
  Marvin  11101114192D          

 23 25  0  0  1  0            999 V2000
    2.5600    0.7927    0.0000 C   0  0  0  0  0  0  0  0  0  0  0  0
    1.9469    1.3448    0.0000 C   0  0  0  0  0  0  0  0  0  0  0  0
    2.5600    1.8968    0.0000 C   0  0  0  0  0  0  0  0  0  0  0  0
    1.4620    0.6773    0.0000 S   0  0  0  0  0  0  0  0  0  0  0  0
    0.6773    0.9323    0.0000 C   0  0  2  0  0  0  0  0  0  0  0  0
   -0.1477    0.9323    0.0000 C   0  0  2  0  0  0  0  0  0  0  0  0
   -0.7310    0.3489    0.0000 N   0  0  0  0  0  0  0  0  0  0  0  0
   -1.5279    0.5624    0.0000 C   0  0  0  0  0  0  0  0  0  0  0  0
   -1.7414    1.3593    0.0000 O   0  0  0  0  0  0  0  0  0  0  0  0
   -2.1113   -0.0209    0.0000 C   0  0  0  0  0  0  0  0  0  0  0  0
   -2.9082    0.1926    0.0000 C   0  0  0  0  0  0  0  0  0  0  0  0
   -3.4915   -0.3908    0.0000 C   0  0  0  0  0  0  0  0  0  0  0  0
   -4.2884   -0.1772    0.0000 C   0  0  0  0  0  0  0  0  0  0  0  0
   -4.5019    0.6197    0.0000 C   0  0  0  0  0  0  0  0  0  0  0  0
   -3.9186    1.2030    0.0000 C   0  0  0  0  0  0  0  0  0  0  0  0
   -3.1217    0.9895    0.0000 C   0  0  0  0  0  0  0  0  0  0  0  0
   -0.1477    1.7573    0.0000 C   0  0  0  0  0  0  0  0  0  0  0  0
   -0.7310    2.3406    0.0000 O   0  0  0  0  0  0  0  0  0  0  0  0
    0.6773    1.7573    0.0000 N   0  0  0  0  0  0  0  0  0  0  0  0
    1.4620    2.0122    0.0000 C   0  0  1  0  0  0  0  0  0  0  0  0
    1.7169    2.7968    0.0000 C   0  0  0  0  0  0  0  0  0  0  0  0
    1.1649    3.4099    0.0000 O   0  0  0  0  0  0  0  0  0  0  0  0
    2.5239    2.9684    0.0000 O   0  0  0  0  0  0  0  0  0  0  0  0
  1  2  1  0  0  0  0
  2  3  1  0  0  0  0
  2  4  1  0  0  0  0
  4  5  1  0  0  0  0
  5  6  1  0  0  0  0
  6  7  1  6  0  0  0
  7  8  1  0  0  0  0
  8  9  2  0  0  0  0
  8 10  1  0  0  0  0
 10 11  1  0  0  0  0
 11 12  4  0  0  0  0
 12 13  4  0  0  0  0
 13 14  4  0  0  0  0
 14 15  4  0  0  0  0
 15 16  4  0  0  0  0
 11 16  4  0  0  0  0
  6 17  1  0  0  0  0
 17 18  2  0  0  0  0
 17 19  1  0  0  0  0
  5 19  1  6  0  0  0
 19 20  1  0  0  0  0
  2 20  1  0  0  0  0
 20 21  1  1  0  0  0
 21 22  2  0  0  0  0
 21 23  1  0  0  0  0
M  END

> <ChembankId>
954

> <SMILES>
CC1(C)S[C@@H]2[C@H](NC(=O)Cc3ccccc3)C(=O)N2[C@H]1C(=O)O

> <InChI>
1/C16H18N2O4S/c1-16(2)12(15(21)22)18-13(20)11(14(18)23-16)17-10(19)8-9-6-4-3-5-7-9/h3-7,11-12,14H,8H2,1-2H3,(H,17,19)(H,21,22)

$$$$
955
  Marvin  11101114192D          

 20 20  0  0  0  0            999 V2000
   -3.5724    2.0625    0.0000 C   0  0  0  0  0  0  0  0  0  0  0  0
   -2.8579    1.6500    0.0000 C   0  0  0  0  0  0  0  0  0  0  0  0
   -2.1434    2.0625    0.0000 N   0  0  0  0  0  0  0  0  0  0  0  0
   -2.1434    2.8875    0.0000 C   0  0  0  0  0  0  0  0  0  0  0  0
   -1.4289    3.3000    0.0000 C   0  0  0  0  0  0  0  0  0  0  0  0
   -1.4289    1.6500    0.0000 C   0  0  0  0  0  0  0  0  0  0  0  0
   -0.7145    2.0625    0.0000 C   0  0  0  0  0  0  0  0  0  0  0  0
   -0.0000    1.6500    0.0000 N   0  0  0  0  0  0  0  0  0  0  0  0
    0.7145    2.0625    0.0000 C   0  0  0  0  0  0  0  0  0  0  0  0
    1.4289    1.6500    0.0000 O   0  0  0  0  0  0  0  0  0  0  0  0
    0.7145    2.8875    0.0000 C   0  0  0  0  0  0  0  0  0  0  0  0
   -0.0000    3.3000    0.0000 C   0  0  0  0  0  0  0  0  0  0  0  0
   -0.0000    4.1250    0.0000 C   0  0  0  0  0  0  0  0  0  0  0  0
   -0.7145    4.5375    0.0000 Br  0  0  0  0  0  0  0  0  0  0  0  0
    0.7145    4.5375    0.0000 C   0  0  0  0  0  0  0  0  0  0  0  0
    0.7145    5.3625    0.0000 N   0  0  0  0  0  0  0  0  0  0  0  0
    1.4289    4.1250    0.0000 C   0  0  0  0  0  0  0  0  0  0  0  0
    1.4289    3.3000    0.0000 C   0  0  0  0  0  0  0  0  0  0  0  0
    2.1434    2.8875    0.0000 O   0  0  0  0  0  0  0  0  0  0  0  0
    2.1434    2.0625    0.0000 C   0  0  0  0  0  0  0  0  0  0  0  0
  1  2  1  0  0  0  0
  2  3  1  0  0  0  0
  3  4  1  0  0  0  0
  4  5  1  0  0  0  0
  3  6  1  0  0  0  0
  6  7  1  0  0  0  0
  7  8  1  0  0  0  0
  8  9  1  0  0  0  0
  9 10  2  0  0  0  0
  9 11  1  0  0  0  0
 11 12  4  0  0  0  0
 12 13  4  0  0  0  0
 13 14  1  0  0  0  0
 13 15  4  0  0  0  0
 15 16  1  0  0  0  0
 15 17  4  0  0  0  0
 17 18  4  0  0  0  0
 11 18  4  0  0  0  0
 18 19  1  0  0  0  0
 19 20  1  0  0  0  0
M  END

> <ChembankId>
955

> <SMILES>
CCN(CC)CCNC(=O)c1cc(Br)c(N)cc1OC

> <InChI>
1/C14H22BrN3O2/c1-4-18(5-2)7-6-17-14(19)10-8-11(15)12(16)9-13(10)20-3/h8-9H,4-7,16H2,1-3H3,(H,17,19)

$$$$
956
  Marvin  11101114192D          

 19 21  0  0  0  0            999 V2000
    2.1434   -2.8875    0.0000 C   0  0  0  0  0  0  0  0  0  0  0  0
    1.4289   -2.4750    0.0000 C   0  0  0  0  0  0  0  0  0  0  0  0
    1.4289   -1.6500    0.0000 N   0  0  0  0  0  0  0  0  0  0  0  0
    0.7145   -1.2375    0.0000 N   0  0  0  0  0  0  0  0  0  0  0  0
    0.7145   -0.4125    0.0000 C   0  0  0  0  0  0  0  0  0  0  0  0
    0.0000    0.0000    0.0000 C   0  0  0  0  0  0  0  0  0  0  0  0
   -0.7145   -0.4125    0.0000 O   0  0  0  0  0  0  0  0  0  0  0  0
    0.0000    0.8250    0.0000 O   0  0  0  0  0  0  0  0  0  0  0  0
    1.4289    0.0000    0.0000 C   0  0  0  0  0  0  0  0  0  0  0  0
    1.4289    0.8250    0.0000 O   0  0  0  0  0  0  0  0  0  0  0  0
    2.1434   -0.4125    0.0000 C   0  0  0  0  0  0  0  0  0  0  0  0
    2.8579    0.0000    0.0000 C   0  0  0  0  0  0  0  0  0  0  0  0
    3.5724   -0.4125    0.0000 C   0  0  0  0  0  0  0  0  0  0  0  0
    4.3570   -0.1576    0.0000 O   0  0  0  0  0  0  0  0  0  0  0  0
    4.8419   -0.8250    0.0000 C   0  0  0  0  0  0  0  0  0  0  0  0
    4.3570   -1.4924    0.0000 O   0  0  0  0  0  0  0  0  0  0  0  0
    3.5724   -1.2375    0.0000 C   0  0  0  0  0  0  0  0  0  0  0  0
    2.8579   -1.6500    0.0000 C   0  0  0  0  0  0  0  0  0  0  0  0
    2.1434   -1.2375    0.0000 C   0  0  0  0  0  0  0  0  0  0  0  0
  1  2  1  0  0  0  0
  2  3  1  0  0  0  0
  3  4  4  0  0  0  0
  4  5  4  0  0  0  0
  5  6  1  0  0  0  0
  6  7  2  0  0  0  0
  6  8  1  0  0  0  0
  5  9  4  0  0  0  0
  9 10  2  0  0  0  0
  9 11  4  0  0  0  0
 11 12  4  0  0  0  0
 12 13  4  0  0  0  0
 13 14  1  0  0  0  0
 14 15  1  0  0  0  0
 15 16  1  0  0  0  0
 16 17  1  0  0  0  0
 13 17  4  0  0  0  0
 17 18  4  0  0  0  0
 18 19  4  0  0  0  0
  3 19  4  0  0  0  0
 11 19  4  0  0  0  0
M  END

> <ChembankId>
956

> <SMILES>
CCn1nc(C(=O)O)c(=O)c2cc3OCOc3cc12

> <InChI>
1/C12H10N2O5/c1-2-14-7-4-9-8(18-5-19-9)3-6(7)11(15)10(13-14)12(16)17/h3-4H,2,5H2,1H3,(H,16,17)

$$$$
959
  Marvin  11101114192D          

 25 27  0  0  0  0            999 V2000
   -1.4289   -4.9500    0.0000 C   0  0  0  0  0  0  0  0  0  0  0  0
   -1.4289   -4.1250    0.0000 O   0  0  0  0  0  0  0  0  0  0  0  0
   -0.7145   -3.7125    0.0000 C   0  0  0  0  0  0  0  0  0  0  0  0
   -0.7145   -2.8875    0.0000 C   0  0  0  0  0  0  0  0  0  0  0  0
    0.0000   -2.4750    0.0000 C   0  0  0  0  0  0  0  0  0  0  0  0
    0.7145   -2.8875    0.0000 C   0  0  0  0  0  0  0  0  0  0  0  0
    1.4289   -2.4750    0.0000 C   0  0  0  0  0  0  0  0  0  0  0  0
    1.4289   -1.6500    0.0000 C   0  0  0  0  0  0  0  0  0  0  0  0
    0.7145   -1.2375    0.0000 N   0  0  0  0  0  0  0  0  0  0  0  0
    0.7145   -0.4125    0.0000 C   0  0  0  0  0  0  0  0  0  0  0  0
    1.4289    0.0000    0.0000 C   0  0  0  0  0  0  0  0  0  0  0  0
    2.1434   -0.4125    0.0000 C   0  0  0  0  0  0  0  0  0  0  0  0
    2.8579    0.0000    0.0000 C   0  0  0  0  0  0  0  0  0  0  0  0
    3.5724   -0.4125    0.0000 C   0  0  0  0  0  0  0  0  0  0  0  0
    4.2868   -0.0000    0.0000 O   0  0  0  0  0  0  0  0  0  0  0  0
    4.2868    0.8250    0.0000 C   0  0  0  0  0  0  0  0  0  0  0  0
    3.5724   -1.2375    0.0000 C   0  0  0  0  0  0  0  0  0  0  0  0
    4.2868   -1.6500    0.0000 O   0  0  0  0  0  0  0  0  0  0  0  0
    4.2868   -2.4750    0.0000 C   0  0  0  0  0  0  0  0  0  0  0  0
    2.8579   -1.6500    0.0000 C   0  0  0  0  0  0  0  0  0  0  0  0
    2.1434   -1.2375    0.0000 C   0  0  0  0  0  0  0  0  0  0  0  0
    0.7145   -3.7125    0.0000 C   0  0  0  0  0  0  0  0  0  0  0  0
    0.0000   -4.1250    0.0000 C   0  0  0  0  0  0  0  0  0  0  0  0
    0.0000   -4.9500    0.0000 O   0  0  0  0  0  0  0  0  0  0  0  0
   -0.7145   -5.3625    0.0000 C   0  0  0  0  0  0  0  0  0  0  0  0
  1  2  1  0  0  0  0
  2  3  1  0  0  0  0
  3  4  4  0  0  0  0
  4  5  4  0  0  0  0
  5  6  4  0  0  0  0
  6  7  1  0  0  0  0
  7  8  1  0  0  0  0
  8  9  4  0  0  0  0
  9 10  4  0  0  0  0
 10 11  4  0  0  0  0
 11 12  4  0  0  0  0
 12 13  4  0  0  0  0
 13 14  4  0  0  0  0
 14 15  1  0  0  0  0
 15 16  1  0  0  0  0
 14 17  4  0  0  0  0
 17 18  1  0  0  0  0
 18 19  1  0  0  0  0
 17 20  4  0  0  0  0
 20 21  4  0  0  0  0
  8 21  4  0  0  0  0
 12 21  4  0  0  0  0
  6 22  4  0  0  0  0
 22 23  4  0  0  0  0
  3 23  4  0  0  0  0
 23 24  1  0  0  0  0
 24 25  1  0  0  0  0
M  END

> <ChembankId>
959

> <SMILES>
COc1ccc(Cc2nccc3cc(OC)c(OC)cc23)cc1OC

> <InChI>
1/C20H21NO4/c1-22-17-6-5-13(10-18(17)23-2)9-16-15-12-20(25-4)19(24-3)11-14(15)7-8-21-16/h5-8,10-12H,9H2,1-4H3

$$$$
962
  Marvin  11101114192D          

 16 17  0  0  0  0            999 V2000
   -0.0980   -0.5558    0.0000 C   0  0  0  0  0  0  0  0  0  0  0  0
    0.7145   -0.4125    0.0000 C   0  0  0  0  0  0  0  0  0  0  0  0
    1.2448   -1.0445    0.0000 C   0  0  0  0  0  0  0  0  0  0  0  0
    1.9592   -1.4570    0.0000 C   0  0  0  0  0  0  0  0  0  0  0  0
    2.6737   -1.0445    0.0000 O   0  0  0  0  0  0  0  0  0  0  0  0
    1.9592   -2.2820    0.0000 N   0  0  0  0  0  0  0  0  0  0  0  0
    1.2448   -2.6945    0.0000 C   0  0  0  0  0  0  0  0  0  0  0  0
    0.5303   -2.2820    0.0000 N   0  0  0  0  0  0  0  0  0  0  0  0
    0.5303   -1.4570    0.0000 C   0  0  0  0  0  0  0  0  0  0  0  0
   -0.1842   -1.0445    0.0000 O   0  0  0  0  0  0  0  0  0  0  0  0
    1.7751   -0.4125    0.0000 C   0  0  0  0  0  0  0  0  0  0  0  0
    1.4929    0.3627    0.0000 C   0  0  0  0  0  0  0  0  0  0  0  0
    2.0232    0.9947    0.0000 C   0  0  0  0  0  0  0  0  0  0  0  0
    2.8357    0.8515    0.0000 C   0  0  0  0  0  0  0  0  0  0  0  0
    3.1178    0.0762    0.0000 C   0  0  0  0  0  0  0  0  0  0  0  0
    2.5875   -0.5558    0.0000 C   0  0  0  0  0  0  0  0  0  0  0  0
  1  2  1  0  0  0  0
  2  3  1  0  0  0  0
  3  4  1  0  0  0  0
  4  5  2  0  0  0  0
  4  6  1  0  0  0  0
  6  7  1  0  0  0  0
  7  8  1  0  0  0  0
  8  9  1  0  0  0  0
  3  9  1  0  0  0  0
  9 10  2  0  0  0  0
  3 11  1  0  0  0  0
 11 12  4  0  0  0  0
 12 13  4  0  0  0  0
 13 14  4  0  0  0  0
 14 15  4  0  0  0  0
 15 16  4  0  0  0  0
 11 16  4  0  0  0  0
M  END

> <ChembankId>
962

> <SMILES>
CCC1(C(=O)NCNC1=O)c2ccccc2

> <InChI>
1/C12H14N2O2/c1-2-12(9-6-4-3-5-7-9)10(15)13-8-14-11(12)16/h3-7H,2,8H2,1H3,(H,13,15)(H,14,16)

$$$$
964
  Marvin  11101114192D          

 13 13  0  0  0  0            999 V2000
    4.0306    0.0352    0.0000 C   0  0  0  0  0  0  0  0  0  0  0  0
    3.4175    0.5872    0.0000 N   0  0  0  0  0  0  0  0  0  0  0  0
    3.5891    1.3942    0.0000 C   0  0  0  0  0  0  0  0  0  0  0  0
    2.6329    0.3323    0.0000 N   0  0  0  0  0  0  0  0  0  0  0  0
    2.0198    0.8843    0.0000 N   0  0  0  0  0  0  0  0  0  0  0  0
    1.2352    0.6294    0.0000 C   0  0  0  0  0  0  0  0  0  0  0  0
    0.9803   -0.1553    0.0000 N   0  0  0  0  0  0  0  0  0  0  0  0
    0.1553   -0.1553    0.0000 C   0  0  0  0  0  0  0  0  0  0  0  0
   -0.0997    0.6294    0.0000 N   0  0  0  0  0  0  0  0  0  0  0  0
    0.5678    1.1143    0.0000 C   0  0  0  0  0  0  0  0  0  0  0  0
    0.5678    1.9393    0.0000 C   0  0  0  0  0  0  0  0  0  0  0  0
   -0.1467    2.3518    0.0000 O   0  0  0  0  0  0  0  0  0  0  0  0
    1.2822    2.3518    0.0000 N   0  0  0  0  0  0  0  0  0  0  0  0
  1  2  1  0  0  0  0
  2  3  1  0  0  0  0
  4  2  1  4  0  0  0
  4  5  2  0  0  0  0
  5  6  1  0  0  0  0
  6  7  4  0  0  0  0
  7  8  4  0  0  0  0
  8  9  4  0  0  0  0
  9 10  4  0  0  0  0
  6 10  4  0  0  0  0
 10 11  1  0  0  0  0
 11 12  2  0  0  0  0
 11 13  1  0  0  0  0
M  STY  1   1 DAT
M  SAL   1  1   7
M  SDT   1 MRV_IMPLICIT_H                                        
M  SDD   1     0.0000    0.0000    DR    ALL  0       0  
M  SED   1 IMPL_H1
M  END

> <ChembankId>
964

> <SMILES>
CN(C)N=Nc1[nH]cnc1C(=O)N

> <InChI>
1/C6H10N6O/c1-12(2)11-10-6-4(5(7)13)8-3-9-6/h3H,1-2H3,(H2,7,13)(H,8,9)

$$$$
965
  Marvin  11101114192D          

 12 13  0  0  0  0            999 V2000
    2.0367   -0.4741    0.0000 C   0  0  0  0  0  0  0  0  0  0  0  0
    2.0367   -1.2991    0.0000 C   0  0  0  0  0  0  0  0  0  0  0  0
    2.7041   -1.7840    0.0000 N   0  0  0  0  0  0  0  0  0  0  0  0
    2.4492   -2.5687    0.0000 C   0  0  0  0  0  0  0  0  0  0  0  0
    1.6242   -2.5687    0.0000 C   0  0  0  0  0  0  0  0  0  0  0  0
    1.3693   -1.7840    0.0000 N   0  0  0  0  0  0  0  0  0  0  0  0
    2.7512   -0.0616    0.0000 C   0  0  0  0  0  0  0  0  0  0  0  0
    2.7512    0.7634    0.0000 C   0  0  0  0  0  0  0  0  0  0  0  0
    3.4656    1.1759    0.0000 C   0  0  0  0  0  0  0  0  0  0  0  0
    4.1801    0.7634    0.0000 C   0  0  0  0  0  0  0  0  0  0  0  0
    4.1801   -0.0616    0.0000 C   0  0  0  0  0  0  0  0  0  0  0  0
    3.4656   -0.4741    0.0000 C   0  0  0  0  0  0  0  0  0  0  0  0
  1  2  1  0  0  0  0
  2  3  2  0  0  0  0
  3  4  1  0  0  0  0
  4  5  1  0  0  0  0
  5  6  1  0  0  0  0
  2  6  1  0  0  0  0
  1  7  1  0  0  0  0
  7  8  4  0  0  0  0
  8  9  4  0  0  0  0
  9 10  4  0  0  0  0
 10 11  4  0  0  0  0
 11 12  4  0  0  0  0
  7 12  4  0  0  0  0
M  END

> <ChembankId>
965

> <SMILES>
C(C1=NCCN1)c2ccccc2

> <InChI>
1/C10H12N2/c1-2-4-9(5-3-1)8-10-11-6-7-12-10/h1-5H,6-8H2,(H,11,12)

$$$$
969
  Marvin  11101114192D          

 25 26  0  0  0  0            999 V2000
   -6.0770    2.3349    0.0000 C   0  0  0  0  0  0  0  0  0  0  0  0
   -5.6645    1.6204    0.0000 C   0  0  0  0  0  0  0  0  0  0  0  0
   -4.8395    1.6204    0.0000 C   0  0  0  0  0  0  0  0  0  0  0  0
   -4.4270    0.9059    0.0000 C   0  0  0  0  0  0  0  0  0  0  0  0
   -3.6020    0.9059    0.0000 O   0  0  0  0  0  0  0  0  0  0  0  0
   -3.1895    0.1914    0.0000 C   0  0  0  0  0  0  0  0  0  0  0  0
   -2.3645    0.1914    0.0000 C   0  0  0  0  0  0  0  0  0  0  0  0
   -1.9520   -0.5230    0.0000 C   0  0  0  0  0  0  0  0  0  0  0  0
   -1.1270   -0.5230    0.0000 C   0  0  0  0  0  0  0  0  0  0  0  0
   -0.7145    0.1914    0.0000 O   0  0  0  0  0  0  0  0  0  0  0  0
   -0.7145   -1.2375    0.0000 N   0  0  0  0  0  0  0  0  0  0  0  0
    0.1105   -1.2375    0.0000 C   0  0  0  0  0  0  0  0  0  0  0  0
    0.5230   -1.9520    0.0000 C   0  0  0  0  0  0  0  0  0  0  0  0
    1.3480   -1.9520    0.0000 N   0  0  0  0  0  0  0  0  0  0  0  0
    1.7605   -2.6664    0.0000 C   0  0  0  0  0  0  0  0  0  0  0  0
    2.5855   -2.6664    0.0000 C   0  0  0  0  0  0  0  0  0  0  0  0
    1.7605   -1.2375    0.0000 C   0  0  0  0  0  0  0  0  0  0  0  0
    2.5855   -1.2375    0.0000 C   0  0  0  0  0  0  0  0  0  0  0  0
   -2.3645   -1.2375    0.0000 C   0  0  0  0  0  0  0  0  0  0  0  0
   -1.9520   -1.9520    0.0000 C   0  0  0  0  0  0  0  0  0  0  0  0
   -2.3645   -2.6664    0.0000 C   0  0  0  0  0  0  0  0  0  0  0  0
   -3.1895   -2.6664    0.0000 C   0  0  0  0  0  0  0  0  0  0  0  0
   -3.6020   -1.9520    0.0000 C   0  0  0  0  0  0  0  0  0  0  0  0
   -3.1895   -1.2375    0.0000 C   0  0  0  0  0  0  0  0  0  0  0  0
   -3.6020   -0.5230    0.0000 N   0  0  0  0  0  0  0  0  0  0  0  0
  1  2  1  0  0  0  0
  2  3  1  0  0  0  0
  3  4  1  0  0  0  0
  4  5  1  0  0  0  0
  5  6  1  0  0  0  0
  6  7  4  0  0  0  0
  7  8  4  0  0  0  0
  8  9  1  0  0  0  0
  9 10  2  0  0  0  0
  9 11  1  0  0  0  0
 11 12  1  0  0  0  0
 12 13  1  0  0  0  0
 13 14  1  0  0  0  0
 14 15  1  0  0  0  0
 15 16  1  0  0  0  0
 14 17  1  0  0  0  0
 17 18  1  0  0  0  0
  8 19  4  0  0  0  0
 19 20  4  0  0  0  0
 20 21  4  0  0  0  0
 21 22  4  0  0  0  0
 22 23  4  0  0  0  0
 23 24  4  0  0  0  0
 19 24  4  0  0  0  0
 24 25  4  0  0  0  0
  6 25  4  0  0  0  0
M  END

> <ChembankId>
969

> <SMILES>
CCCCOc1cc(C(=O)NCCN(CC)CC)c2ccccc2n1

> <InChI>
1/C20H29N3O2/c1-4-7-14-25-19-15-17(16-10-8-9-11-18(16)22-19)20(24)21-12-13-23(5-2)6-3/h8-11,15H,4-7,12-14H2,1-3H3,(H,21,24)

$$$$
971
  Marvin  11101114192D          

 22 24  0  0  0  0            999 V2000
   -1.4289   -2.4750    0.0000 C   0  0  0  0  0  0  0  0  0  0  0  0
   -1.4289   -1.6500    0.0000 N   0  0  0  0  0  0  0  0  0  0  0  0
   -0.7145   -1.2375    0.0000 C   0  0  0  0  0  0  0  0  0  0  0  0
   -0.7145   -0.4125    0.0000 S   0  0  0  0  0  0  0  0  0  0  0  0
    0.0000   -1.6500    0.0000 O   0  0  0  0  0  0  0  0  0  0  0  0
    0.7145   -1.2375    0.0000 C   0  0  0  0  0  0  0  0  0  0  0  0
    0.7145   -0.4125    0.0000 C   0  0  0  0  0  0  0  0  0  0  0  0
    1.4289    0.0000    0.0000 C   0  0  0  0  0  0  0  0  0  0  0  0
    2.1434   -0.4125    0.0000 C   0  0  0  0  0  0  0  0  0  0  0  0
    2.8579    0.0000    0.0000 C   0  0  0  0  0  0  0  0  0  0  0  0
    3.5724   -0.4125    0.0000 C   0  0  0  0  0  0  0  0  0  0  0  0
    3.5724   -1.2375    0.0000 C   0  0  0  0  0  0  0  0  0  0  0  0
    2.8579   -1.6500    0.0000 C   0  0  0  0  0  0  0  0  0  0  0  0
    2.1434   -1.2375    0.0000 C   0  0  0  0  0  0  0  0  0  0  0  0
    1.4289   -1.6500    0.0000 C   0  0  0  0  0  0  0  0  0  0  0  0
   -2.1434   -1.2375    0.0000 C   0  0  0  0  0  0  0  0  0  0  0  0
   -2.8579   -1.6500    0.0000 C   0  0  0  0  0  0  0  0  0  0  0  0
   -3.5724   -1.2375    0.0000 C   0  0  0  0  0  0  0  0  0  0  0  0
   -3.5724   -0.4125    0.0000 C   0  0  0  0  0  0  0  0  0  0  0  0
   -2.8579   -0.0000    0.0000 C   0  0  0  0  0  0  0  0  0  0  0  0
   -2.8579    0.8250    0.0000 C   0  0  0  0  0  0  0  0  0  0  0  0
   -2.1434   -0.4125    0.0000 C   0  0  0  0  0  0  0  0  0  0  0  0
  1  2  1  0  0  0  0
  2  3  1  0  0  0  0
  3  4  2  0  0  0  0
  3  5  1  0  0  0  0
  5  6  1  0  0  0  0
  6  7  4  0  0  0  0
  7  8  4  0  0  0  0
  8  9  4  0  0  0  0
  9 10  4  0  0  0  0
 10 11  4  0  0  0  0
 11 12  4  0  0  0  0
 12 13  4  0  0  0  0
 13 14  4  0  0  0  0
  9 14  4  0  0  0  0
 14 15  4  0  0  0  0
  6 15  4  0  0  0  0
  2 16  1  0  0  0  0
 16 17  4  0  0  0  0
 17 18  4  0  0  0  0
 18 19  4  0  0  0  0
 19 20  4  0  0  0  0
 20 21  1  0  0  0  0
 20 22  4  0  0  0  0
 16 22  4  0  0  0  0
M  END

> <ChembankId>
971

> <SMILES>
CN(C(=S)Oc1ccc2ccccc2c1)c3cccc(C)c3

> <InChI>
1/C19H17NOS/c1-14-6-5-9-17(12-14)20(2)19(22)21-18-11-10-15-7-3-4-8-16(15)13-18/h3-13H,1-2H3

$$$$
975
  Marvin  11101114192D          

 28 30  0  0  0  0            999 V2000
    5.7158    0.0000    0.0000 C   0  0  0  0  0  0  0  0  0  0  0  0
    6.4302    0.4125    0.0000 C   0  0  0  0  0  0  0  0  0  0  0  0
    7.1447    0.0000    0.0000 N   0  0  0  0  0  0  0  0  0  0  0  0
    7.1447   -0.8250    0.0000 C   0  0  0  0  0  0  0  0  0  0  0  0
    7.8592   -1.2375    0.0000 C   0  0  0  0  0  0  0  0  0  0  0  0
    7.8592    0.4125    0.0000 C   0  0  0  0  0  0  0  0  0  0  0  0
    8.5737    0.0000    0.0000 C   0  0  0  0  0  0  0  0  0  0  0  0
    9.2881    0.4125    0.0000 O   0  0  0  0  0  0  0  0  0  0  0  0
   10.0026    0.0000    0.0000 C   0  0  0  0  0  0  0  0  0  0  0  0
   10.0026   -0.8250    0.0000 O   0  0  0  0  0  0  0  0  0  0  0  0
   10.7171    0.4125    0.0000 C   0  0  0  0  0  0  0  0  0  0  0  0
   10.7171    1.2375    0.0000 C   0  0  0  0  0  0  0  0  0  0  0  0
   10.0026    1.6500    0.0000 C   0  0  0  0  0  0  0  0  0  0  0  0
    9.2489    1.3144    0.0000 C   0  0  0  0  0  0  0  0  0  0  0  0
    8.6969    1.9275    0.0000 C   0  0  0  0  0  0  0  0  0  0  0  0
    9.1094    2.6420    0.0000 C   0  0  0  0  0  0  0  0  0  0  0  0
    9.9164    2.4705    0.0000 O   0  0  0  0  0  0  0  0  0  0  0  0
   11.4315    0.0000    0.0000 C   0  0  0  0  0  0  0  0  0  0  0  0
   12.1460    0.4125    0.0000 C   0  0  0  0  0  0  0  0  0  0  0  0
   12.1460    1.2375    0.0000 C   0  0  0  0  0  0  0  0  0  0  0  0
   12.8605    1.6500    0.0000 C   0  0  0  0  0  0  0  0  0  0  0  0
   13.5749    1.2375    0.0000 C   0  0  0  0  0  0  0  0  0  0  0  0
   13.5749    0.4125    0.0000 C   0  0  0  0  0  0  0  0  0  0  0  0
   14.2894    0.0000    0.0000 C   0  0  0  0  0  0  0  0  0  0  0  0
   14.2894   -0.8250    0.0000 C   0  0  0  0  0  0  0  0  0  0  0  0
   13.5749   -1.2375    0.0000 C   0  0  0  0  0  0  0  0  0  0  0  0
   12.8605   -0.8250    0.0000 C   0  0  0  0  0  0  0  0  0  0  0  0
   12.8605    0.0000    0.0000 C   0  0  0  0  0  0  0  0  0  0  0  0
  1  2  1  0  0  0  0
  2  3  1  0  0  0  0
  3  4  1  0  0  0  0
  4  5  1  0  0  0  0
  3  6  1  0  0  0  0
  6  7  1  0  0  0  0
  7  8  1  0  0  0  0
  8  9  1  0  0  0  0
  9 10  2  0  0  0  0
  9 11  1  0  0  0  0
 11 12  1  0  0  0  0
 12 13  1  0  0  0  0
 13 14  1  0  0  0  0
 14 15  1  0  0  0  0
 15 16  1  0  0  0  0
 16 17  1  0  0  0  0
 13 17  1  0  0  0  0
 11 18  1  0  0  0  0
 18 19  1  0  0  0  0
 19 20  4  0  0  0  0
 20 21  4  0  0  0  0
 21 22  4  0  0  0  0
 22 23  4  0  0  0  0
 23 24  4  0  0  0  0
 24 25  4  0  0  0  0
 25 26  4  0  0  0  0
 26 27  4  0  0  0  0
 27 28  4  0  0  0  0
 19 28  4  0  0  0  0
 23 28  4  0  0  0  0
M  END

> <ChembankId>
975

> <SMILES>
CCN(CC)CCOC(=O)C(CC1CCCO1)Cc2cccc3ccccc23

> <InChI>
1/C24H33NO3/c1-3-25(4-2)14-16-28-24(26)21(18-22-12-8-15-27-22)17-20-11-7-10-19-9-5-6-13-23(19)20/h5-7,9-11,13,21-22H,3-4,8,12,14-18H2,1-2H3

$$$$
977
  Marvin  11101114192D          

 28 31  0  0  1  0            999 V2000
    3.5330   -3.2587    0.0000 C   0  0  0  0  0  0  0  0  0  0  0  0
    3.8928   -2.5163    0.0000 C   0  0  2  0  0  0  0  0  0  0  0  0
    4.4247   -3.1470    0.0000 C   0  0  0  0  0  0  0  0  0  0  0  0
    5.2368   -3.0018    0.0000 C   0  0  2  0  0  0  0  0  0  0  0  0
    5.7686   -3.6325    0.0000 O   0  0  0  0  0  0  0  0  0  0  0  0
    5.5171   -2.2259    0.0000 C   0  0  1  0  0  0  0  0  0  0  0  0
    6.0489   -2.8566    0.0000 F   0  0  0  0  0  0  0  0  0  0  0  0
    4.9853   -1.5952    0.0000 C   0  0  0  0  0  0  0  0  0  0  0  0
    5.2655   -0.8192    0.0000 C   0  0  0  0  0  0  0  0  0  0  0  0
    6.0777   -0.6740    0.0000 C   0  0  0  0  0  0  0  0  0  0  0  0
    6.6095   -1.3047    0.0000 C   0  0  0  0  0  0  0  0  0  0  0  0
    7.4216   -1.1595    0.0000 C   0  0  0  0  0  0  0  0  0  0  0  0
    7.9534   -1.7902    0.0000 C   0  0  0  0  0  0  0  0  0  0  0  0
    8.7655   -1.6450    0.0000 O   0  0  0  0  0  0  0  0  0  0  0  0
    7.6731   -2.5662    0.0000 C   0  0  0  0  0  0  0  0  0  0  0  0
    6.8610   -2.7114    0.0000 C   0  0  0  0  0  0  0  0  0  0  0  0
    6.3292   -2.0807    0.0000 C   0  0  2  0  0  0  0  0  0  0  0  0
    6.5585   -2.8731    0.0000 C   0  0  0  0  0  0  0  0  0  0  0  0
    4.1731   -1.7404    0.0000 C   0  0  0  0  0  0  0  0  0  0  0  0
    3.5218   -1.2340    0.0000 C   0  0  0  0  0  0  0  0  0  0  0  0
    2.8390   -1.6970    0.0000 C   0  0  1  0  0  0  0  0  0  0  0  0
    2.0630   -1.4167    0.0000 O   0  0  0  0  0  0  0  0  0  0  0  0
    3.0683   -2.4895    0.0000 C   0  0  1  0  0  0  0  0  0  0  0  0
    2.9469   -3.3055    0.0000 O   0  0  0  0  0  0  0  0  0  0  0  0
    2.3074   -2.8084    0.0000 C   0  0  0  0  0  0  0  0  0  0  0  0
    1.6508   -2.3089    0.0000 O   0  0  0  0  0  0  0  0  0  0  0  0
    2.2031   -3.6268    0.0000 C   0  0  0  0  0  0  0  0  0  0  0  0
    2.8597   -4.1263    0.0000 O   0  0  0  0  0  0  0  0  0  0  0  0
  2  1  1  1  0  0  0
  2  3  1  0  0  0  0
  3  4  1  0  0  0  0
  4  5  1  1  0  0  0
  4  6  1  0  0  0  0
  6  7  1  6  0  0  0
  6  8  1  0  0  0  0
  8  9  1  0  0  0  0
  9 10  1  0  0  0  0
 10 11  1  0  0  0  0
 11 12  2  0  0  0  0
 12 13  1  0  0  0  0
 13 14  2  0  0  0  0
 13 15  1  0  0  0  0
 15 16  2  0  0  0  0
 16 17  1  0  0  0  0
 11 17  1  0  0  0  0
  6 17  1  0  0  0  0
 17 18  1  1  0  0  0
  8 19  1  0  0  0  0
  2 19  1  0  0  0  0
 19 20  1  0  0  0  0
 20 21  1  0  0  0  0
 21 22  1  6  0  0  0
 21 23  1  0  0  0  0
  2 23  1  0  0  0  0
 23 24  1  6  0  0  0
 23 25  1  1  0  0  0
 25 26  2  0  0  0  0
 25 27  1  0  0  0  0
 27 28  1  0  0  0  0
M  END

> <ChembankId>
977

> <SMILES>
C[C@@]12C[C@H](O)[C@@]3(F)C(CCC4=CC(=O)C=C[C@@]43C)C2C[C@@H](O)[C@]1(O)C(=O)CO

> <InChI>
1/C21H27FO6/c1-18-6-5-12(24)7-11(18)3-4-13-14-8-15(25)21(28,17(27)10-23)19(14,2)9-16(26)20(13,18)22/h5-7,13-16,23,25-26,28H,3-4,8-10H2,1-2H3

$$$$
978
  Marvin  11101114192D          

 11 10  0  0  0  0            999 V2000
    1.7605   -1.8414    0.0000 C   0  0  0  0  0  0  0  0  0  0  0  0
    2.4750   -1.4289    0.0000 O   0  0  0  0  0  0  0  0  0  0  0  0
    3.1895   -1.8414    0.0000 C   0  0  0  0  0  0  0  0  0  0  0  0
    3.1895   -2.6664    0.0000 O   0  0  0  0  0  0  0  0  0  0  0  0
    3.9039   -1.4289    0.0000 C   0  0  0  0  0  0  0  0  0  0  0  0
    3.9039   -0.6039    0.0000 C   0  0  0  0  0  0  0  0  0  0  0  0
    4.6184   -1.8414    0.0000 C   0  0  0  0  0  0  0  0  0  0  0  0
    5.3329   -1.4289    0.0000 N   0  3  0  0  0  0  0  0  0  0  0  0
    6.0474   -1.0164    0.0000 C   0  0  0  0  0  0  0  0  0  0  0  0
    5.7454   -2.1434    0.0000 C   0  0  0  0  0  0  0  0  0  0  0  0
    4.9204   -0.7145    0.0000 C   0  0  0  0  0  0  0  0  0  0  0  0
  1  2  1  0  0  0  0
  2  3  1  0  0  0  0
  3  4  2  0  0  0  0
  3  5  1  0  0  0  0
  5  6  1  0  0  0  0
  5  7  1  0  0  0  0
  7  8  1  0  0  0  0
  8  9  1  0  0  0  0
  8 10  1  0  0  0  0
  8 11  1  0  0  0  0
M  CHG  1   8   1
M  END

> <ChembankId>
978

> <SMILES>
COC(=O)C(C)C[N+](C)(C)C

> <InChI>
1/C8H18NO2/c1-7(8(10)11-5)6-9(2,3)4/h7H,6H2,1-5H3/q+1

$$$$
982
  Marvin  11101114192D          

 27 29  0  0  0  0            999 V2000
   -1.4289    0.8250    0.0000 C   0  0  0  0  0  0  0  0  0  0  0  0
   -1.4289   -0.0000    0.0000 C   0  0  0  0  0  0  0  0  0  0  0  0
   -2.1434   -0.4125    0.0000 O   0  0  0  0  0  0  0  0  0  0  0  0
   -0.7145   -0.4125    0.0000 O   0  0  0  0  0  0  0  0  0  0  0  0
   -0.7145   -1.2375    0.0000 C   0  0  0  0  0  0  0  0  0  0  0  0
    0.0000   -1.6500    0.0000 C   0  0  0  0  0  0  0  0  0  0  0  0
    0.0000   -2.4750    0.0000 C   0  0  0  0  0  0  0  0  0  0  0  0
   -0.7145   -2.8875    0.0000 C   0  0  0  0  0  0  0  0  0  0  0  0
   -1.4289   -2.4750    0.0000 C   0  0  0  0  0  0  0  0  0  0  0  0
   -1.4289   -1.6500    0.0000 C   0  0  0  0  0  0  0  0  0  0  0  0
   -0.7145   -3.7125    0.0000 C   0  0  0  0  0  0  0  0  0  0  0  0
   -1.4289   -4.1250    0.0000 C   0  0  0  0  0  0  0  0  0  0  0  0
   -1.4289   -4.9500    0.0000 C   0  0  0  0  0  0  0  0  0  0  0  0
   -2.1434   -5.3625    0.0000 C   0  0  0  0  0  0  0  0  0  0  0  0
   -2.8579   -4.9500    0.0000 C   0  0  0  0  0  0  0  0  0  0  0  0
   -3.5724   -5.3625    0.0000 O   0  0  0  0  0  0  0  0  0  0  0  0
   -3.5724   -6.1875    0.0000 C   0  0  0  0  0  0  0  0  0  0  0  0
   -2.8579   -6.6000    0.0000 O   0  0  0  0  0  0  0  0  0  0  0  0
   -4.2868   -6.6000    0.0000 C   0  0  0  0  0  0  0  0  0  0  0  0
   -2.8579   -4.1250    0.0000 C   0  0  0  0  0  0  0  0  0  0  0  0
   -2.1434   -3.7125    0.0000 C   0  0  0  0  0  0  0  0  0  0  0  0
   -0.0000   -4.1250    0.0000 C   0  0  0  0  0  0  0  0  0  0  0  0
    0.7145   -3.7125    0.0000 C   0  0  0  0  0  0  0  0  0  0  0  0
    1.4289   -4.1250    0.0000 C   0  0  0  0  0  0  0  0  0  0  0  0
    1.4289   -4.9500    0.0000 C   0  0  0  0  0  0  0  0  0  0  0  0
    0.7145   -5.3625    0.0000 C   0  0  0  0  0  0  0  0  0  0  0  0
   -0.0000   -4.9500    0.0000 N   0  0  0  0  0  0  0  0  0  0  0  0
  1  2  1  0  0  0  0
  2  3  2  0  0  0  0
  2  4  1  0  0  0  0
  4  5  1  0  0  0  0
  5  6  4  0  0  0  0
  6  7  4  0  0  0  0
  7  8  4  0  0  0  0
  8  9  4  0  0  0  0
  9 10  4  0  0  0  0
  5 10  4  0  0  0  0
  8 11  1  0  0  0  0
 11 12  1  0  0  0  0
 12 13  4  0  0  0  0
 13 14  4  0  0  0  0
 14 15  4  0  0  0  0
 15 16  1  0  0  0  0
 16 17  1  0  0  0  0
 17 18  2  0  0  0  0
 17 19  1  0  0  0  0
 15 20  4  0  0  0  0
 20 21  4  0  0  0  0
 12 21  4  0  0  0  0
 11 22  1  0  0  0  0
 22 23  4  0  0  0  0
 23 24  4  0  0  0  0
 24 25  4  0  0  0  0
 25 26  4  0  0  0  0
 26 27  4  0  0  0  0
 22 27  4  0  0  0  0
M  END

> <ChembankId>
982

> <SMILES>
CC(=O)Oc1ccc(cc1)C(c2ccc(OC(=O)C)cc2)c3ccccn3

> <InChI>
1/C22H19NO4/c1-15(24)26-19-10-6-17(7-11-19)22(21-5-3-4-14-23-21)18-8-12-20(13-9-18)27-16(2)25/h3-14,22H,1-2H3

$$$$
984
  Marvin  11101114192D          

 25 28  0  0  1  0            999 V2000
    1.4978    2.4498    0.0000 C   0  0  0  0  0  0  0  0  0  0  0  0
    1.7781    1.6739    0.0000 C   0  0  1  0  0  0  0  0  0  0  0  0
    2.5902    1.5287    0.0000 C   0  0  0  0  0  0  0  0  0  0  0  0
    2.8705    0.7528    0.0000 C   0  0  0  0  0  0  0  0  0  0  0  0
    3.6826    0.6076    0.0000 C   0  0  0  0  0  0  0  0  0  0  0  0
    4.3340    1.1139    0.0000 C   0  0  0  0  0  0  0  0  0  0  0  0
    5.0168    0.6509    0.0000 C   0  0  0  0  0  0  0  0  0  0  0  0
    4.7875   -0.1416    0.0000 C   0  0  2  0  0  0  0  0  0  0  0  0
    5.2939   -0.7929    0.0000 C   0  0  0  0  0  0  0  0  0  0  0  0
    6.1111   -0.6800    0.0000 O   0  0  0  0  0  0  0  0  0  0  0  0
    4.9830   -1.5571    0.0000 C   0  0  0  0  0  0  0  0  0  0  0  0
    3.9629   -0.1684    0.0000 C   0  0  2  0  0  0  0  0  0  0  0  0
    4.3228   -0.9107    0.0000 C   0  0  0  0  0  0  0  0  0  0  0  0
    3.4311   -0.7991    0.0000 C   0  0  0  0  0  0  0  0  0  0  0  0
    2.6190   -0.6539    0.0000 C   0  0  2  0  0  0  0  0  0  0  0  0
    2.0872   -1.2846    0.0000 O   0  0  0  0  0  0  0  0  0  0  0  0
    2.3387    0.1221    0.0000 C   0  0  0  0  0  0  0  0  0  0  0  0
    1.5266    0.2673    0.0000 C   0  0  1  0  0  0  0  0  0  0  0  0
    1.8069   -0.5086    0.0000 C   0  0  0  0  0  0  0  0  0  0  0  0
    0.9948   -0.3634    0.0000 C   0  0  0  0  0  0  0  0  0  0  0  0
    0.1827   -0.2182    0.0000 C   0  0  0  0  0  0  0  0  0  0  0  0
   -0.0976    0.5577    0.0000 C   0  0  0  0  0  0  0  0  0  0  0  0
   -0.9098    0.7029    0.0000 O   0  0  0  0  0  0  0  0  0  0  0  0
    0.4342    1.1884    0.0000 C   0  0  0  0  0  0  0  0  0  0  0  0
    1.2463    1.0432    0.0000 C   0  0  0  0  0  0  0  0  0  0  0  0
  2  1  1  1  0  0  0
  2  3  1  0  0  0  0
  3  4  1  0  0  0  0
  4  5  1  0  0  0  0
  5  6  1  0  0  0  0
  6  7  1  0  0  0  0
  7  8  1  0  0  0  0
  8  9  1  6  0  0  0
  9 10  2  0  0  0  0
  9 11  1  0  0  0  0
  8 12  1  0  0  0  0
  5 12  1  0  0  0  0
 12 13  1  6  0  0  0
 12 14  1  0  0  0  0
 14 15  1  0  0  0  0
 15 16  1  6  0  0  0
 15 17  1  0  0  0  0
  4 17  1  0  0  0  0
 17 18  1  0  0  0  0
 18 19  1  6  0  0  0
 18 20  1  0  0  0  0
 20 21  1  0  0  0  0
 21 22  1  0  0  0  0
 22 23  2  0  0  0  0
 22 24  1  0  0  0  0
 24 25  2  0  0  0  0
  2 25  1  0  0  0  0
 18 25  1  0  0  0  0
M  END

> <ChembankId>
984

> <SMILES>
C[C@H]1CC2C3CC[C@H](C(=O)C)[C@@]3(C)C[C@H](O)C2[C@@]4(C)CCC(=O)C=C14

> <InChI>
1/C22H32O3/c1-12-9-15-17-6-5-16(13(2)23)22(17,4)11-19(25)20(15)21(3)8-7-14(24)10-18(12)21/h10,12,15-17,19-20,25H,5-9,11H2,1-4H3

$$$$
990
  Marvin  11101114192D          

 24 25  0  0  0  0            999 V2000
   -5.3605   -3.1719    0.0000 C   0  0  0  0  0  0  0  0  0  0  0  0
   -4.5679   -2.9431    0.0000 C   0  0  0  0  0  0  0  0  0  0  0  0
   -3.9734   -3.5151    0.0000 N   0  0  0  0  0  0  0  0  0  0  0  0
   -4.1716   -4.3160    0.0000 C   0  0  0  0  0  0  0  0  0  0  0  0
   -4.9642   -4.5448    0.0000 C   0  0  0  0  0  0  0  0  0  0  0  0
   -3.1808   -3.2863    0.0000 C   0  0  0  0  0  0  0  0  0  0  0  0
   -2.5863   -3.8584    0.0000 C   0  0  0  0  0  0  0  0  0  0  0  0
   -1.7937   -3.6295    0.0000 O   0  0  0  0  0  0  0  0  0  0  0  0
   -1.1992   -4.2016    0.0000 C   0  0  0  0  0  0  0  0  0  0  0  0
   -0.4066   -3.9728    0.0000 C   0  0  0  0  0  0  0  0  0  0  0  0
    0.1879   -4.5448    0.0000 O   0  0  0  0  0  0  0  0  0  0  0  0
    0.9805   -4.3160    0.0000 C   0  0  0  0  0  0  0  0  0  0  0  0
    1.1787   -3.5151    0.0000 O   0  0  0  0  0  0  0  0  0  0  0  0
    1.5750   -4.8880    0.0000 C   0  0  0  0  0  0  0  0  0  0  0  0
    2.2754   -5.3240    0.0000 C   0  0  0  0  0  0  0  0  0  0  0  0
    2.0773   -6.1248    0.0000 C   0  0  0  0  0  0  0  0  0  0  0  0
    1.2544   -6.1838    0.0000 C   0  0  0  0  0  0  0  0  0  0  0  0
    0.9440   -5.4194    0.0000 C   0  0  0  0  0  0  0  0  0  0  0  0
    2.0818   -4.2370    0.0000 C   0  0  0  0  0  0  0  0  0  0  0  0
    1.7714   -3.4726    0.0000 C   0  0  0  0  0  0  0  0  0  0  0  0
    2.2781   -2.8216    0.0000 C   0  0  0  0  0  0  0  0  0  0  0  0
    3.0953   -2.9350    0.0000 C   0  0  0  0  0  0  0  0  0  0  0  0
    3.4057   -3.6994    0.0000 C   0  0  0  0  0  0  0  0  0  0  0  0
    2.8989   -4.3504    0.0000 C   0  0  0  0  0  0  0  0  0  0  0  0
  1  2  1  0  0  0  0
  2  3  1  0  0  0  0
  3  4  1  0  0  0  0
  4  5  1  0  0  0  0
  3  6  1  0  0  0  0
  6  7  1  0  0  0  0
  7  8  1  0  0  0  0
  8  9  1  0  0  0  0
  9 10  1  0  0  0  0
 10 11  1  0  0  0  0
 11 12  1  0  0  0  0
 12 13  2  0  0  0  0
 12 14  1  0  0  0  0
 14 15  1  0  0  0  0
 15 16  1  0  0  0  0
 16 17  1  0  0  0  0
 17 18  1  0  0  0  0
 14 18  1  0  0  0  0
 14 19  1  0  0  0  0
 19 20  4  0  0  0  0
 20 21  4  0  0  0  0
 21 22  4  0  0  0  0
 22 23  4  0  0  0  0
 23 24  4  0  0  0  0
 19 24  4  0  0  0  0
M  END

> <ChembankId>
990

> <SMILES>
CCN(CC)CCOCCOC(=O)C1(CCCC1)c2ccccc2

> <InChI>
1/C20H31NO3/c1-3-21(4-2)14-15-23-16-17-24-19(22)20(12-8-9-13-20)18-10-6-5-7-11-18/h5-7,10-11H,3-4,8-9,12-17H2,1-2H3

$$$$
991
  Marvin  11101114192D          

 25 28  0  0  1  0            999 V2000
   -3.7019   -3.4519    0.0000 C   0  0  0  0  0  0  0  0  0  0  0  0
   -2.9879   -3.8653    0.0000 C   0  0  0  0  0  0  0  0  0  0  0  0
   -2.2730   -3.4536    0.0000 C   0  0  1  0  0  0  0  0  0  0  0  0
   -2.2720   -2.6286    0.0000 C   0  0  0  0  0  0  0  0  0  0  0  0
   -2.9860   -2.2153    0.0000 O   0  0  0  0  0  0  0  0  0  0  0  0
   -1.5590   -3.8670    0.0000 N   0  0  0  0  0  0  0  0  0  0  0  0
   -0.8440   -3.4554    0.0000 C   0  0  0  0  0  0  0  0  0  0  0  0
   -0.1301   -3.8687    0.0000 O   0  0  0  0  0  0  0  0  0  0  0  0
   -0.8430   -2.6304    0.0000 C   0  0  1  0  0  0  0  0  0  0  0  0
   -1.5570   -2.2170    0.0000 C   0  0  0  0  0  0  0  0  0  0  0  0
   -1.5560   -1.3920    0.0000 N   0  0  0  0  0  0  0  0  0  0  0  0
   -2.2700   -0.9786    0.0000 C   0  0  0  0  0  0  0  0  0  0  0  0
   -0.8411   -0.9804    0.0000 C   0  0  2  0  0  0  0  0  0  0  0  0
   -0.8411   -0.1554    0.0000 C   0  0  0  0  0  0  0  0  0  0  0  0
   -0.1286    0.2571    0.0000 C   0  0  0  0  0  0  0  0  0  0  0  0
    0.1714    1.1143    0.0000 C   0  0  0  0  0  0  0  0  0  0  0  0
    0.9964    1.1143    0.0000 N   0  0  0  0  0  0  0  0  0  0  0  0
    1.3018    0.2571    0.0000 C   0  0  0  0  0  0  0  0  0  0  0  0
    2.0143   -0.1554    0.0000 C   0  0  0  0  0  0  0  0  0  0  0  0
    2.0143   -0.9804    0.0000 C   0  0  0  0  0  0  0  0  0  0  0  0
    1.3018   -1.3929    0.0000 C   0  0  0  0  0  0  0  0  0  0  0  0
    0.5839   -0.9804    0.0000 C   0  0  0  0  0  0  0  0  0  0  0  0
   -0.1271   -1.3937    0.0000 C   0  0  0  0  0  0  0  0  0  0  0  0
   -0.1281   -2.2187    0.0000 C   0  0  0  0  0  0  0  0  0  0  0  0
    0.5839   -0.1554    0.0000 C   0  0  0  0  0  0  0  0  0  0  0  0
  1  2  1  0  0  0  0
  2  3  1  0  0  0  0
  3  4  1  0  0  0  0
  4  5  1  0  0  0  0
  3  6  1  1  0  0  0
  6  7  1  0  0  0  0
  7  8  2  0  0  0  0
  9  7  1  1  0  0  0
  9 10  1  0  0  0  0
 10 11  1  0  0  0  0
 11 12  1  0  0  0  0
 13 11  1  6  0  0  0
 13 14  1  0  0  0  0
 14 15  1  0  0  0  0
 15 16  4  0  0  0  0
 16 17  4  0  0  0  0
 17 18  4  0  0  0  0
 18 19  4  0  0  0  0
 19 20  4  0  0  0  0
 20 21  4  0  0  0  0
 21 22  4  0  0  0  0
 22 23  1  0  0  0  0
 13 23  1  0  0  0  0
 23 24  2  0  0  0  0
  9 24  1  0  0  0  0
 22 25  4  0  0  0  0
 15 25  4  0  0  0  0
 18 25  4  0  0  0  0
M  STY  1   1 DAT
M  SAL   1  1  17
M  SDT   1 MRV_IMPLICIT_H                                        
M  SDD   1     0.0000    0.0000    DR    ALL  0       0  
M  SED   1 IMPL_H1
M  END

> <ChembankId>
991

> <SMILES>
CC[C@@H](CO)NC(=O)[C@H]1CN(C)[C@@H]2Cc3c[nH]c4cccc(C2=C1)c34

> <InChI>
1/C20H25N3O2/c1-3-14(11-24)22-20(25)13-7-16-15-5-4-6-17-19(15)12(9-21-17)8-18(16)23(2)10-13/h4-7,9,13-14,18,21,24H,3,8,10-11H2,1-2H3,(H,22,25)

$$$$
992
  Marvin  11101114192D          

 15 16  0  0  1  0            999 V2000
    1.8185    0.5823    0.0000 C   0  0  0  0  0  0  0  0  0  0  0  0
    2.5330    0.1698    0.0000 C   0  0  0  0  0  0  0  0  0  0  0  0
    2.5330   -0.6552    0.0000 C   0  0  1  0  0  0  0  0  0  0  0  0
    3.2004   -1.1401    0.0000 C   0  0  1  0  0  0  0  0  0  0  0  0
    3.9850   -0.8852    0.0000 C   0  0  0  0  0  0  0  0  0  0  0  0
    4.5981   -1.4372    0.0000 C   0  0  0  0  0  0  0  0  0  0  0  0
    5.4051   -1.2657    0.0000 C   0  0  0  0  0  0  0  0  0  0  0  0
    5.8176   -1.9802    0.0000 N   0  0  0  0  0  0  0  0  0  0  0  0
    5.2656   -2.5933    0.0000 C   0  0  0  0  0  0  0  0  0  0  0  0
    4.5119   -2.2577    0.0000 N   0  0  0  0  0  0  0  0  0  0  0  0
    3.7974   -2.6702    0.0000 C   0  0  0  0  0  0  0  0  0  0  0  0
    2.9455   -1.9248    0.0000 C   0  0  0  0  0  0  0  0  0  0  0  0
    2.1205   -1.9248    0.0000 O   0  0  0  0  0  0  0  0  0  0  0  0
    1.8655   -1.1401    0.0000 C   0  0  0  0  0  0  0  0  0  0  0  0
    1.0809   -0.8852    0.0000 O   0  0  0  0  0  0  0  0  0  0  0  0
  1  2  1  0  0  0  0
  3  2  1  1  0  0  0
  3  4  1  0  0  0  0
  4  5  1  1  0  0  0
  5  6  1  0  0  0  0
  6  7  4  0  0  0  0
  7  8  4  0  0  0  0
  8  9  4  0  0  0  0
  9 10  4  0  0  0  0
  6 10  4  0  0  0  0
 10 11  1  0  0  0  0
  4 12  1  0  0  0  0
 12 13  1  0  0  0  0
 13 14  1  0  0  0  0
  3 14  1  0  0  0  0
 14 15  2  0  0  0  0
M  END

> <ChembankId>
992

> <SMILES>
CC[C@H]1[C@@H](Cc2cncn2C)COC1=O

> <InChI>
1/C11H16N2O2/c1-3-10-8(6-15-11(10)14)4-9-5-12-7-13(9)2/h5,7-8,10H,3-4,6H2,1-2H3

$$$$
995
  Marvin  11101114192D          

 27 28  0  0  1  0            999 V2000
   -1.6703    2.1731    0.0000 C   0  0  0  0  0  0  0  0  0  0  0  0
   -1.3348    1.4194    0.0000 C   0  0  0  0  0  0  0  0  0  0  0  0
   -0.5143    1.3332    0.0000 C   0  0  0  0  0  0  0  0  0  0  0  0
   -0.1787    0.5795    0.0000 C   0  0  2  0  0  0  0  0  0  0  0  0
    0.6282    0.4080    0.0000 C   0  0  0  0  0  0  0  0  0  0  0  0
    0.7145   -0.4125    0.0000 C   0  0  2  0  0  0  0  0  0  0  0  0
   -0.0392   -0.7481    0.0000 N   0  0  0  0  0  0  0  0  0  0  0  0
   -0.2107   -1.5550    0.0000 C   0  0  0  0  0  0  0  0  0  0  0  0
   -0.5912   -0.1350    0.0000 C   0  0  0  0  0  0  0  0  0  0  0  0
    1.4289   -0.8250    0.0000 C   0  0  0  0  0  0  0  0  0  0  0  0
    2.1434   -0.4125    0.0000 O   0  0  0  0  0  0  0  0  0  0  0  0
    1.4289   -1.6500    0.0000 N   0  0  0  0  0  0  0  0  0  0  0  0
    2.1434   -2.0625    0.0000 C   0  0  1  0  0  0  0  0  0  0  0  0
    2.8579   -1.6500    0.0000 C   0  0  2  0  0  0  0  0  0  0  0  0
    2.8579   -0.8250    0.0000 C   0  0  0  0  0  0  0  0  0  0  0  0
    3.5724   -2.0625    0.0000 O   0  0  0  0  0  0  0  0  0  0  0  0
    2.1434   -2.8875    0.0000 C   0  0  1  0  0  0  0  0  0  0  0  0
    2.8579   -3.3000    0.0000 O   0  0  0  0  0  0  0  0  0  0  0  0
    2.8579   -4.1250    0.0000 C   0  0  2  0  0  0  0  0  0  0  0  0
    3.5724   -4.5375    0.0000 S   0  0  0  0  0  0  0  0  0  0  0  0
    4.2868   -4.1250    0.0000 C   0  0  0  0  0  0  0  0  0  0  0  0
    2.1434   -4.5375    0.0000 C   0  0  2  0  0  0  0  0  0  0  0  0
    2.1434   -5.3625    0.0000 O   0  0  0  0  0  0  0  0  0  0  0  0
    1.4289   -4.1250    0.0000 C   0  0  1  0  0  0  0  0  0  0  0  0
    0.7145   -4.5375    0.0000 O   0  0  0  0  0  0  0  0  0  0  0  0
    1.4289   -3.3000    0.0000 C   0  0  1  0  0  0  0  0  0  0  0  0
    0.7145   -2.8875    0.0000 O   0  0  0  0  0  0  0  0  0  0  0  0
  1  2  1  0  0  0  0
  2  3  1  0  0  0  0
  4  3  1  6  0  0  0
  4  5  1  0  0  0  0
  5  6  1  0  0  0  0
  6  7  1  0  0  0  0
  7  8  1  0  0  0  0
  7  9  1  0  0  0  0
  4  9  1  0  0  0  0
  6 10  1  1  0  0  0
 10 11  2  0  0  0  0
 10 12  1  0  0  0  0
 13 12  1  1  0  0  0
 13 14  1  0  0  0  0
 14 15  1  0  0  0  0
 14 16  1  6  0  0  0
 17 13  1  1  0  0  0
 17 18  1  0  0  0  0
 18 19  1  0  0  0  0
 19 20  1  6  0  0  0
 20 21  1  0  0  0  0
 19 22  1  0  0  0  0
 22 23  1  6  0  0  0
 22 24  1  0  0  0  0
 24 25  1  1  0  0  0
 24 26  1  0  0  0  0
 17 26  1  0  0  0  0
 26 27  1  1  0  0  0
M  END

> <ChembankId>
995

> <SMILES>
CCC[C@@H]1C[C@H](N(C)C1)C(=O)N[C@@H]([C@H](C)O)[C@H]2O[C@H](SC)[C@H](O)[C@@H](O)[C@H]2O

> <InChI>
1/C18H34N2O6S/c1-5-6-10-7-11(20(3)8-10)17(25)19-12(9(2)21)16-14(23)13(22)15(24)18(26-16)27-4/h9-16,18,21-24H,5-8H2,1-4H3,(H,19,25)

$$$$
997
  Marvin  11101114192D          

 12 12  0  0  0  0            999 V2000
    1.4289   -1.6500    0.0000 N   0  0  0  0  0  0  0  0  0  0  0  0
    0.7145   -1.2375    0.0000 C   0  0  0  0  0  0  0  0  0  0  0  0
    0.7145   -0.4125    0.0000 C   0  0  0  0  0  0  0  0  0  0  0  0
   -0.0000    0.0000    0.0000 C   0  0  0  0  0  0  0  0  0  0  0  0
    0.0000    0.8250    0.0000 C   0  0  0  0  0  0  0  0  0  0  0  0
    0.7145    1.2375    0.0000 C   0  0  0  0  0  0  0  0  0  0  0  0
    1.4289    0.8250    0.0000 C   0  0  0  0  0  0  0  0  0  0  0  0
    1.4289    0.0000    0.0000 C   0  0  0  0  0  0  0  0  0  0  0  0
    0.7145    2.0625    0.0000 S   0  0  0  0  0  0  0  0  0  0  0  0
    0.7145    2.8875    0.0000 O   0  0  0  0  0  0  0  0  0  0  0  0
    1.5395    2.0625    0.0000 O   0  0  0  0  0  0  0  0  0  0  0  0
   -0.1105    2.0625    0.0000 N   0  0  0  0  0  0  0  0  0  0  0  0
  1  2  1  0  0  0  0
  2  3  1  0  0  0  0
  3  4  4  0  0  0  0
  4  5  4  0  0  0  0
  5  6  4  0  0  0  0
  6  7  4  0  0  0  0
  7  8  4  0  0  0  0
  3  8  4  0  0  0  0
  6  9  1  0  0  0  0
  9 10  2  0  0  0  0
  9 11  2  0  0  0  0
  9 12  1  0  0  0  0
M  END

> <ChembankId>
997

> <SMILES>
NCc1ccc(cc1)S(=O)(=O)N

> <InChI>
1/C7H10N2O2S/c8-5-6-1-3-7(4-2-6)12(9,10)11/h1-4H,5,8H2,(H2,9,10,11)

$$$$
998
  Marvin  11101114192D          

 23 23  0  0  0  0            999 V2000
   -5.0013   -5.3625    0.0000 C   0  0  0  0  0  0  0  0  0  0  0  0
   -4.2868   -5.7750    0.0000 C   0  0  0  0  0  0  0  0  0  0  0  0
   -3.5724   -5.3625    0.0000 C   0  0  0  0  0  0  0  0  0  0  0  0
   -2.8579   -5.7750    0.0000 C   0  0  0  0  0  0  0  0  0  0  0  0
   -2.1434   -5.3625    0.0000 C   0  0  0  0  0  0  0  0  0  0  0  0
   -1.4289   -5.7750    0.0000 C   0  0  0  0  0  0  0  0  0  0  0  0
   -0.7145   -5.3625    0.0000 C   0  0  0  0  0  0  0  0  0  0  0  0
    0.0000   -5.7750    0.0000 C   0  0  0  0  0  0  0  0  0  0  0  0
    0.7145   -5.3625    0.0000 N   0  0  0  0  0  0  0  0  0  0  0  0
    1.4289   -5.7750    0.0000 C   0  0  0  0  0  0  0  0  0  0  0  0
    1.4289   -6.6000    0.0000 C   0  0  0  0  0  0  0  0  0  0  0  0
    2.1434   -5.3625    0.0000 C   0  0  0  0  0  0  0  0  0  0  0  0
    2.1434   -4.5375    0.0000 O   0  0  0  0  0  0  0  0  0  0  0  0
    2.8579   -5.7750    0.0000 C   0  0  0  0  0  0  0  0  0  0  0  0
    3.5724   -5.3625    0.0000 C   0  0  0  0  0  0  0  0  0  0  0  0
    4.2868   -5.7750    0.0000 C   0  0  0  0  0  0  0  0  0  0  0  0
    4.2868   -6.6000    0.0000 C   0  0  0  0  0  0  0  0  0  0  0  0
    5.0013   -7.0125    0.0000 S   0  0  0  0  0  0  0  0  0  0  0  0
    5.0013   -7.8375    0.0000 C   0  0  0  0  0  0  0  0  0  0  0  0
    5.7158   -8.2500    0.0000 C   0  0  0  0  0  0  0  0  0  0  0  0
    4.2868   -8.2500    0.0000 C   0  0  0  0  0  0  0  0  0  0  0  0
    3.5724   -7.0125    0.0000 C   0  0  0  0  0  0  0  0  0  0  0  0
    2.8579   -6.6000    0.0000 C   0  0  0  0  0  0  0  0  0  0  0  0
  1  2  1  0  0  0  0
  2  3  1  0  0  0  0
  3  4  1  0  0  0  0
  4  5  1  0  0  0  0
  5  6  1  0  0  0  0
  6  7  1  0  0  0  0
  7  8  1  0  0  0  0
  8  9  1  0  0  0  0
  9 10  1  0  0  0  0
 10 11  1  0  0  0  0
 10 12  1  0  0  0  0
 12 13  1  0  0  0  0
 12 14  1  0  0  0  0
 14 15  4  0  0  0  0
 15 16  4  0  0  0  0
 16 17  4  0  0  0  0
 17 18  1  0  0  0  0
 18 19  1  0  0  0  0
 19 20  1  0  0  0  0
 19 21  1  0  0  0  0
 17 22  4  0  0  0  0
 22 23  4  0  0  0  0
 14 23  4  0  0  0  0
M  END

> <ChembankId>
998

> <SMILES>
CCCCCCCCNC(C)C(O)c1ccc(SC(C)C)cc1

> <InChI>
1/C20H35NOS/c1-5-6-7-8-9-10-15-21-17(4)20(22)18-11-13-19(14-12-18)23-16(2)3/h11-14,16-17,20-22H,5-10,15H2,1-4H3

$$$$
999
  Marvin  11101114192D          

 25 27  0  0  0  0            999 V2000
    2.1434   -2.8875    0.0000 C   0  0  0  0  0  0  0  0  0  0  0  0
    1.4289   -2.4750    0.0000 C   0  0  0  0  0  0  0  0  0  0  0  0
    1.4289   -1.6500    0.0000 N   0  0  0  0  0  0  0  0  0  0  0  0
    0.7145   -1.2375    0.0000 C   0  0  0  0  0  0  0  0  0  0  0  0
    0.7145   -0.4125    0.0000 C   0  0  0  0  0  0  0  0  0  0  0  0
    0.0000    0.0000    0.0000 C   0  0  0  0  0  0  0  0  0  0  0  0
   -0.7145   -0.4125    0.0000 O   0  0  0  0  0  0  0  0  0  0  0  0
    0.0000    0.8250    0.0000 O   0  0  0  0  0  0  0  0  0  0  0  0
    1.4289    0.0000    0.0000 C   0  0  0  0  0  0  0  0  0  0  0  0
    1.4289    0.8250    0.0000 O   0  0  0  0  0  0  0  0  0  0  0  0
    2.1434   -0.4125    0.0000 C   0  0  0  0  0  0  0  0  0  0  0  0
    2.8579    0.0000    0.0000 C   0  0  0  0  0  0  0  0  0  0  0  0
    3.5724   -0.4125    0.0000 C   0  0  0  0  0  0  0  0  0  0  0  0
    4.2868   -0.0000    0.0000 F   0  0  0  0  0  0  0  0  0  0  0  0
    3.5724   -1.2375    0.0000 C   0  0  0  0  0  0  0  0  0  0  0  0
    4.2868   -1.6500    0.0000 N   0  0  0  0  0  0  0  0  0  0  0  0
    5.0013   -1.2375    0.0000 C   0  0  0  0  0  0  0  0  0  0  0  0
    5.7158   -1.6500    0.0000 C   0  0  0  0  0  0  0  0  0  0  0  0
    5.7158   -2.4750    0.0000 N   0  0  0  0  0  0  0  0  0  0  0  0
    5.0013   -2.8875    0.0000 C   0  0  0  0  0  0  0  0  0  0  0  0
    5.0013   -3.7125    0.0000 C   0  0  0  0  0  0  0  0  0  0  0  0
    4.2868   -2.4750    0.0000 C   0  0  0  0  0  0  0  0  0  0  0  0
    2.8579   -1.6500    0.0000 C   0  0  0  0  0  0  0  0  0  0  0  0
    2.8579   -2.4750    0.0000 F   0  0  0  0  0  0  0  0  0  0  0  0
    2.1434   -1.2375    0.0000 C   0  0  0  0  0  0  0  0  0  0  0  0
  1  2  1  0  0  0  0
  2  3  1  0  0  0  0
  3  4  4  0  0  0  0
  4  5  4  0  0  0  0
  5  6  1  0  0  0  0
  6  7  2  0  0  0  0
  6  8  1  0  0  0  0
  5  9  4  0  0  0  0
  9 10  2  0  0  0  0
  9 11  4  0  0  0  0
 11 12  4  0  0  0  0
 12 13  4  0  0  0  0
 13 14  1  0  0  0  0
 13 15  4  0  0  0  0
 15 16  1  0  0  0  0
 16 17  1  0  0  0  0
 17 18  1  0  0  0  0
 18 19  1  0  0  0  0
 19 20  1  0  0  0  0
 20 21  1  0  0  0  0
 20 22  1  0  0  0  0
 16 22  1  0  0  0  0
 15 23  4  0  0  0  0
 23 24  1  0  0  0  0
 23 25  4  0  0  0  0
  3 25  4  0  0  0  0
 11 25  4  0  0  0  0
M  END

> <ChembankId>
999

> <SMILES>
CCn1cc(C(=O)O)c(=O)c2cc(F)c(N3CCNC(C)C3)c(F)c12

> <InChI>
1/C17H19F2N3O3/c1-3-21-8-11(17(24)25)16(23)10-6-12(18)15(13(19)14(10)21)22-5-4-20-9(2)7-22/h6,8-9,20H,3-5,7H2,1-2H3,(H,24,25)

$$$$
1000
  Marvin  11101114192D          

 20 21  0  0  0  0            999 V2000
   -2.1434   -2.0625    0.0000 N   0  0  0  0  0  0  0  0  0  0  0  0
   -1.4289   -1.6500    0.0000 S   0  0  0  0  0  0  0  0  0  0  0  0
   -1.0164   -2.3645    0.0000 O   0  0  0  0  0  0  0  0  0  0  0  0
   -1.8414   -0.9355    0.0000 O   0  0  0  0  0  0  0  0  0  0  0  0
   -0.7145   -1.2375    0.0000 C   0  0  0  0  0  0  0  0  0  0  0  0
    0.0000   -1.6500    0.0000 C   0  0  0  0  0  0  0  0  0  0  0  0
    0.7145   -1.2375    0.0000 C   0  0  0  0  0  0  0  0  0  0  0  0
    0.7145   -0.4125    0.0000 C   0  0  0  0  0  0  0  0  0  0  0  0
    1.4289   -0.0000    0.0000 N   0  0  0  0  0  0  0  0  0  0  0  0
    2.1434   -0.4125    0.0000 C   0  0  0  0  0  0  0  0  0  0  0  0
    2.1434   -1.2375    0.0000 N   0  0  0  0  0  0  0  0  0  0  0  0
    1.4289   -1.6500    0.0000 S   0  0  0  0  0  0  0  0  0  0  0  0
    1.8163   -2.3784    0.0000 O   0  0  0  0  0  0  0  0  0  0  0  0
    1.0416   -2.3784    0.0000 O   0  0  0  0  0  0  0  0  0  0  0  0
    2.8579   -0.0000    0.0000 C   0  0  0  0  0  0  0  0  0  0  0  0
    2.8579    0.8250    0.0000 Cl  0  0  0  0  0  0  0  0  0  0  0  0
    3.5724   -0.4125    0.0000 Cl  0  0  0  0  0  0  0  0  0  0  0  0
    0.0000   -0.0000    0.0000 C   0  0  0  0  0  0  0  0  0  0  0  0
   -0.7145   -0.4125    0.0000 C   0  0  0  0  0  0  0  0  0  0  0  0
   -1.4289    0.0000    0.0000 Cl  0  0  0  0  0  0  0  0  0  0  0  0
  1  2  1  0  0  0  0
  2  3  2  0  0  0  0
  2  4  2  0  0  0  0
  2  5  1  0  0  0  0
  5  6  4  0  0  0  0
  6  7  4  0  0  0  0
  7  8  4  0  0  0  0
  8  9  1  0  0  0  0
  9 10  1  0  0  0  0
 10 11  1  0  0  0  0
 11 12  1  0  0  0  0
  7 12  1  0  0  0  0
 12 13  2  0  0  0  0
 12 14  2  0  0  0  0
 10 15  1  0  0  0  0
 15 16  1  0  0  0  0
 15 17  1  0  0  0  0
  8 18  4  0  0  0  0
 18 19  4  0  0  0  0
  5 19  4  0  0  0  0
 19 20  1  0  0  0  0
M  END

> <ChembankId>
1000

> <SMILES>
NS(=O)(=O)c1cc2c(NC(NS2(=O)=O)C(Cl)Cl)cc1Cl

> <InChI>
1/C8H8Cl3N3O4S2/c9-3-1-4-6(2-5(3)19(12,15)16)20(17,18)14-8(13-4)7(10)11/h1-2,7-8,13-14H,(H2,12,15,16)

$$$$
1001
  Marvin  11101114192D          

 17 17  0  0  0  0            999 V2000
   -3.5724   -4.5375    0.0000 C   0  0  0  0  0  0  0  0  0  0  0  0
   -2.8579   -4.1250    0.0000 N   0  0  0  0  0  0  0  0  0  0  0  0
   -2.8579   -3.3000    0.0000 C   0  0  0  0  0  0  0  0  0  0  0  0
   -2.1434   -4.5375    0.0000 C   0  0  0  0  0  0  0  0  0  0  0  0
   -1.4289   -4.1250    0.0000 C   0  0  0  0  0  0  0  0  0  0  0  0
   -0.7145   -4.5375    0.0000 O   0  0  0  0  0  0  0  0  0  0  0  0
    0.0000   -4.1250    0.0000 C   0  0  0  0  0  0  0  0  0  0  0  0
    0.0000   -3.3000    0.0000 O   0  0  0  0  0  0  0  0  0  0  0  0
    0.7145   -4.5375    0.0000 C   0  0  0  0  0  0  0  0  0  0  0  0
    1.4289   -4.1250    0.0000 O   0  0  0  0  0  0  0  0  0  0  0  0
    2.1434   -4.5375    0.0000 C   0  0  0  0  0  0  0  0  0  0  0  0
    2.8579   -4.1250    0.0000 C   0  0  0  0  0  0  0  0  0  0  0  0
    3.5724   -4.5375    0.0000 C   0  0  0  0  0  0  0  0  0  0  0  0
    3.5724   -5.3625    0.0000 C   0  0  0  0  0  0  0  0  0  0  0  0
    4.2868   -5.7750    0.0000 Cl  0  0  0  0  0  0  0  0  0  0  0  0
    2.8579   -5.7750    0.0000 C   0  0  0  0  0  0  0  0  0  0  0  0
    2.1434   -5.3625    0.0000 C   0  0  0  0  0  0  0  0  0  0  0  0
  1  2  1  0  0  0  0
  2  3  1  0  0  0  0
  2  4  1  0  0  0  0
  4  5  1  0  0  0  0
  5  6  1  0  0  0  0
  6  7  1  0  0  0  0
  7  8  2  0  0  0  0
  7  9  1  0  0  0  0
  9 10  1  0  0  0  0
 10 11  1  0  0  0  0
 11 12  4  0  0  0  0
 12 13  4  0  0  0  0
 13 14  4  0  0  0  0
 14 15  1  0  0  0  0
 14 16  4  0  0  0  0
 16 17  4  0  0  0  0
 11 17  4  0  0  0  0
M  END

> <ChembankId>
1001

> <SMILES>
CN(C)CCOC(=O)COc1ccc(Cl)cc1

> <InChI>
1/C12H16ClNO3/c1-14(2)7-8-16-12(15)9-17-11-5-3-10(13)4-6-11/h3-6H,7-9H2,1-2H3

$$$$
1002
  Marvin  11101114192D          

 19 20  0  0  0  0            999 V2000
   -2.8579   -1.6500    0.0000 C   0  0  0  0  0  0  0  0  0  0  0  0
   -2.1434   -1.2375    0.0000 N   0  0  0  0  0  0  0  0  0  0  0  0
   -2.1434   -0.4125    0.0000 C   0  0  0  0  0  0  0  0  0  0  0  0
   -1.4289   -1.6500    0.0000 C   0  0  0  0  0  0  0  0  0  0  0  0
   -0.7145   -1.2375    0.0000 C   0  0  0  0  0  0  0  0  0  0  0  0
    0.0000   -1.6500    0.0000 O   0  0  0  0  0  0  0  0  0  0  0  0
    0.7145   -1.2375    0.0000 C   0  0  0  0  0  0  0  0  0  0  0  0
    1.4289   -1.6500    0.0000 C   0  0  0  0  0  0  0  0  0  0  0  0
    2.1434   -1.2375    0.0000 C   0  0  0  0  0  0  0  0  0  0  0  0
    2.8579   -1.6500    0.0000 C   0  0  0  0  0  0  0  0  0  0  0  0
    2.8579   -2.4750    0.0000 C   0  0  0  0  0  0  0  0  0  0  0  0
    2.1434   -2.8875    0.0000 C   0  0  0  0  0  0  0  0  0  0  0  0
    1.4289   -2.4750    0.0000 C   0  0  0  0  0  0  0  0  0  0  0  0
    0.7145   -0.4125    0.0000 C   0  0  0  0  0  0  0  0  0  0  0  0
    0.0000   -0.0000    0.0000 C   0  0  0  0  0  0  0  0  0  0  0  0
    0.0000    0.8250    0.0000 C   0  0  0  0  0  0  0  0  0  0  0  0
    0.7145    1.2375    0.0000 C   0  0  0  0  0  0  0  0  0  0  0  0
    1.4289    0.8250    0.0000 C   0  0  0  0  0  0  0  0  0  0  0  0
    1.4289    0.0000    0.0000 C   0  0  0  0  0  0  0  0  0  0  0  0
  1  2  1  0  0  0  0
  2  3  1  0  0  0  0
  2  4  1  0  0  0  0
  4  5  1  0  0  0  0
  5  6  1  0  0  0  0
  6  7  1  0  0  0  0
  7  8  1  0  0  0  0
  8  9  4  0  0  0  0
  9 10  4  0  0  0  0
 10 11  4  0  0  0  0
 11 12  4  0  0  0  0
 12 13  4  0  0  0  0
  8 13  4  0  0  0  0
  7 14  1  0  0  0  0
 14 15  4  0  0  0  0
 15 16  4  0  0  0  0
 16 17  4  0  0  0  0
 17 18  4  0  0  0  0
 18 19  4  0  0  0  0
 14 19  4  0  0  0  0
M  END

> <ChembankId>
1002

> <SMILES>
CN(C)CCOC(c1ccccc1)c2ccccc2

> <InChI>
1/C17H21NO/c1-18(2)13-14-19-17(15-9-5-3-6-10-15)16-11-7-4-8-12-16/h3-12,17H,13-14H2,1-2H3

$$$$
1012
  Marvin  11101114192D          

 17 19  0  0  0  0            999 V2000
    0.5433   -1.9354    0.0000 C   0  0  0  0  0  0  0  0  0  0  0  0
    1.3683   -1.9354    0.0000 C   0  0  0  0  0  0  0  0  0  0  0  0
    1.8532   -1.2680    0.0000 C   0  0  0  0  0  0  0  0  0  0  0  0
    2.6378   -1.5229    0.0000 C   0  0  0  0  0  0  0  0  0  0  0  0
    3.3523   -1.1104    0.0000 C   0  0  0  0  0  0  0  0  0  0  0  0
    4.0668   -1.5229    0.0000 C   0  0  0  0  0  0  0  0  0  0  0  0
    4.7812   -1.1104    0.0000 C   0  0  0  0  0  0  0  0  0  0  0  0
    4.7812   -0.2854    0.0000 C   0  0  0  0  0  0  0  0  0  0  0  0
    5.4957   -1.5229    0.0000 C   0  0  0  0  0  0  0  0  0  0  0  0
    5.4957   -2.3479    0.0000 C   0  0  0  0  0  0  0  0  0  0  0  0
    6.2102   -2.7604    0.0000 O   0  0  0  0  0  0  0  0  0  0  0  0
    4.7812   -2.7604    0.0000 O   0  0  0  0  0  0  0  0  0  0  0  0
    4.0668   -2.3479    0.0000 C   0  0  0  0  0  0  0  0  0  0  0  0
    3.3523   -2.7604    0.0000 C   0  0  0  0  0  0  0  0  0  0  0  0
    3.3523   -3.5854    0.0000 C   0  0  0  0  0  0  0  0  0  0  0  0
    2.6378   -2.3479    0.0000 C   0  0  0  0  0  0  0  0  0  0  0  0
    1.8532   -2.6029    0.0000 O   0  0  0  0  0  0  0  0  0  0  0  0
  1  2  1  0  0  0  0
  2  3  4  0  0  0  0
  3  4  4  0  0  0  0
  4  5  4  0  0  0  0
  5  6  4  0  0  0  0
  6  7  4  0  0  0  0
  7  8  1  0  0  0  0
  7  9  4  0  0  0  0
  9 10  4  0  0  0  0
 10 11  2  0  0  0  0
 10 12  4  0  0  0  0
 12 13  4  0  0  0  0
  6 13  4  0  0  0  0
 13 14  4  0  0  0  0
 14 15  1  0  0  0  0
 14 16  4  0  0  0  0
  4 16  4  0  0  0  0
 16 17  4  0  0  0  0
  2 17  4  0  0  0  0
M  END

> <ChembankId>
1012

> <SMILES>
Cc1cc2cc3c(C)cc(=O)oc3c(C)c2o1

> <InChI>
1/C14H12O3/c1-7-4-12(15)17-14-9(3)13-10(6-11(7)14)5-8(2)16-13/h4-6H,1-3H3

$$$$
1016
  Marvin  11101114192D          

 19 21  0  0  0  0            999 V2000
    5.1447    2.1706    0.0000 C   0  0  0  0  0  0  0  0  0  0  0  0
    4.8290    1.4084    0.0000 N   0  0  0  0  0  0  0  0  0  0  0  0
    5.4124    0.8250    0.0000 C   0  0  0  0  0  0  0  0  0  0  0  0
    5.4124   -0.0000    0.0000 C   0  0  0  0  0  0  0  0  0  0  0  0
    4.8290   -0.5834    0.0000 O   0  0  0  0  0  0  0  0  0  0  0  0
    4.0040   -0.5834    0.0000 C   0  0  0  0  0  0  0  0  0  0  0  0
    3.6883   -1.3456    0.0000 C   0  0  0  0  0  0  0  0  0  0  0  0
    4.1905   -2.0001    0.0000 C   0  0  0  0  0  0  0  0  0  0  0  0
    3.8748   -2.7623    0.0000 C   0  0  0  0  0  0  0  0  0  0  0  0
    3.0569   -2.8700    0.0000 C   0  0  0  0  0  0  0  0  0  0  0  0
    2.5547   -2.2154    0.0000 C   0  0  0  0  0  0  0  0  0  0  0  0
    2.8704   -1.4532    0.0000 C   0  0  0  0  0  0  0  0  0  0  0  0
    3.4207   -0.0000    0.0000 C   0  0  0  0  0  0  0  0  0  0  0  0
    2.7062   -0.4125    0.0000 C   0  0  0  0  0  0  0  0  0  0  0  0
    1.9917    0.0000    0.0000 C   0  0  0  0  0  0  0  0  0  0  0  0
    1.9917    0.8250    0.0000 C   0  0  0  0  0  0  0  0  0  0  0  0
    2.7062    1.2375    0.0000 C   0  0  0  0  0  0  0  0  0  0  0  0
    3.4207    0.8250    0.0000 C   0  0  0  0  0  0  0  0  0  0  0  0
    4.0040    1.4084    0.0000 C   0  0  0  0  0  0  0  0  0  0  0  0
  1  2  1  0  0  0  0
  2  3  1  0  0  0  0
  3  4  1  0  0  0  0
  4  5  1  0  0  0  0
  5  6  1  0  0  0  0
  6  7  1  0  0  0  0
  7  8  4  0  0  0  0
  8  9  4  0  0  0  0
  9 10  4  0  0  0  0
 10 11  4  0  0  0  0
 11 12  4  0  0  0  0
  7 12  4  0  0  0  0
  6 13  1  0  0  0  0
 13 14  4  0  0  0  0
 14 15  4  0  0  0  0
 15 16  4  0  0  0  0
 16 17  4  0  0  0  0
 17 18  4  0  0  0  0
 13 18  4  0  0  0  0
 18 19  1  0  0  0  0
  2 19  1  0  0  0  0
M  END

> <ChembankId>
1016

> <SMILES>
CN1CCOC(c2ccccc2)c3ccccc3C1

> <InChI>
1/C17H19NO/c1-18-11-12-19-17(14-7-3-2-4-8-14)16-10-6-5-9-15(16)13-18/h2-10,17H,11-13H2,1H3

$$$$
1018
  Marvin  11101114192D          

 20 23  0  0  1  0            999 V2000
    3.2874   -3.7418    0.0000 C   0  0  0  0  0  0  0  0  0  0  0  0
    2.4817   -3.9190    0.0000 O   0  0  0  0  0  0  0  0  0  0  0  0
    1.9253   -3.3098    0.0000 C   0  0  0  0  0  0  0  0  0  0  0  0
    1.1196   -3.4870    0.0000 C   0  0  0  0  0  0  0  0  0  0  0  0
    0.5633   -2.8778    0.0000 C   0  0  0  0  0  0  0  0  0  0  0  0
    0.8127   -2.0914    0.0000 C   0  0  0  0  0  0  0  0  0  0  0  0
    1.2248   -1.5105    0.0000 C   0  0  0  0  0  0  0  0  0  0  0  0
    1.1634   -0.5574    0.0000 C   0  0  1  0  0  0  0  0  0  0  0  0
    1.7132   -0.1214    0.0000 C   0  0  2  0  0  0  0  0  0  0  0  0
    2.4848    0.1706    0.0000 C   0  0  0  0  0  0  0  0  0  0  0  0
    3.1235   -0.3516    0.0000 C   0  0  0  0  0  0  0  0  0  0  0  0
    2.9905   -1.1659    0.0000 C   0  0  0  0  0  0  0  0  0  0  0  0
    2.2189   -1.4579    0.0000 C   0  0  0  0  0  0  0  0  0  0  0  0
    1.5803   -0.9356    0.0000 C   0  0  2  0  0  0  0  0  0  0  0  0
    0.6220   -0.9357    0.0000 C   0  0  0  0  0  0  0  0  0  0  0  0
    0.1175   -1.3600    0.0000 C   0  0  0  0  0  0  0  0  0  0  0  0
    0.2444   -0.5581    0.0000 N   0  0  0  0  0  0  0  0  0  0  0  0
   -0.2917    0.0690    0.0000 C   0  0  0  0  0  0  0  0  0  0  0  0
    1.6184   -1.9142    0.0000 C   0  0  0  0  0  0  0  0  0  0  0  0
    2.1748   -2.5234    0.0000 C   0  0  0  0  0  0  0  0  0  0  0  0
  1  2  1  0  0  0  0
  2  3  1  0  0  0  0
  3  4  4  0  0  0  0
  4  5  4  0  0  0  0
  5  6  4  0  0  0  0
  6  7  1  0  0  0  0
  7  8  1  0  0  0  0
  8  9  1  0  0  0  0
  9 10  1  6  0  0  0
 10 11  1  0  0  0  0
 11 12  1  0  0  0  0
 12 13  1  0  0  0  0
 13 14  1  0  0  0  0
  9 14  1  0  0  0  0
 14 15  1  0  0  0  0
 15 16  1  0  0  0  0
 16 17  1  0  0  0  0
  8 17  1  6  0  0  0
 17 18  1  0  0  0  0
 14 19  1  1  0  0  0
  6 19  4  0  0  0  0
 19 20  4  0  0  0  0
  3 20  4  0  0  0  0
M  END

> <ChembankId>
1018

> <SMILES>
COc1ccc2C[C@H]3[C@@H]4CCCC[C@@]4(CCN3C)c2c1

> <InChI>
1/C18H25NO/c1-19-10-9-18-8-4-3-5-15(18)17(19)11-13-6-7-14(20-2)12-16(13)18/h6-7,12,15,17H,3-5,8-11H2,1-2H3

$$$$
1029
  Marvin  11101114192D          

 21 23  0  0  0  0            999 V2000
   -3.0587    0.0165    0.0000 C   0  0  0  0  0  0  0  0  0  0  0  0
   -2.6462   -0.6979    0.0000 C   0  0  0  0  0  0  0  0  0  0  0  0
   -3.0587   -1.4124    0.0000 C   0  0  0  0  0  0  0  0  0  0  0  0
   -3.8837   -1.4124    0.0000 O   0  0  0  0  0  0  0  0  0  0  0  0
   -2.6462   -2.1269    0.0000 O   0  0  0  0  0  0  0  0  0  0  0  0
   -1.8212   -0.6979    0.0000 C   0  0  0  0  0  0  0  0  0  0  0  0
   -1.4087    0.0165    0.0000 C   0  0  0  0  0  0  0  0  0  0  0  0
   -0.5837    0.0165    0.0000 C   0  0  0  0  0  0  0  0  0  0  0  0
   -0.1712   -0.6979    0.0000 C   0  0  0  0  0  0  0  0  0  0  0  0
   -0.5837   -1.4124    0.0000 C   0  0  0  0  0  0  0  0  0  0  0  0
   -1.4087   -1.4124    0.0000 C   0  0  0  0  0  0  0  0  0  0  0  0
    0.6538   -0.6979    0.0000 N   0  0  0  0  0  0  0  0  0  0  0  0
    1.1387   -0.0305    0.0000 C   0  0  0  0  0  0  0  0  0  0  0  0
    1.9233   -0.2854    0.0000 C   0  0  0  0  0  0  0  0  0  0  0  0
    2.6378    0.1271    0.0000 C   0  0  0  0  0  0  0  0  0  0  0  0
    3.3523   -0.2854    0.0000 C   0  0  0  0  0  0  0  0  0  0  0  0
    3.3523   -1.1104    0.0000 C   0  0  0  0  0  0  0  0  0  0  0  0
    2.6378   -1.5229    0.0000 C   0  0  0  0  0  0  0  0  0  0  0  0
    1.9233   -1.1104    0.0000 C   0  0  0  0  0  0  0  0  0  0  0  0
    1.1387   -1.3654    0.0000 C   0  0  0  0  0  0  0  0  0  0  0  0
    0.8838   -2.1500    0.0000 O   0  0  0  0  0  0  0  0  0  0  0  0
  1  2  1  0  0  0  0
  2  3  1  0  0  0  0
  3  4  2  0  0  0  0
  3  5  1  0  0  0  0
  2  6  1  0  0  0  0
  6  7  4  0  0  0  0
  7  8  4  0  0  0  0
  8  9  4  0  0  0  0
  9 10  4  0  0  0  0
 10 11  4  0  0  0  0
  6 11  4  0  0  0  0
  9 12  1  0  0  0  0
 12 13  1  0  0  0  0
 13 14  1  0  0  0  0
 14 15  4  0  0  0  0
 15 16  4  0  0  0  0
 16 17  4  0  0  0  0
 17 18  4  0  0  0  0
 18 19  4  0  0  0  0
 14 19  4  0  0  0  0
 19 20  1  0  0  0  0
 12 20  1  0  0  0  0
 20 21  2  0  0  0  0
M  END

> <ChembankId>
1029

> <SMILES>
CC(C(=O)O)c1ccc(cc1)N2Cc3ccccc3C2=O

> <InChI>
1/C17H15NO3/c1-11(17(20)21)12-6-8-14(9-7-12)18-10-13-4-2-3-5-15(13)16(18)19/h2-9,11H,10H2,1H3,(H,20,21)

$$$$
1033
  Marvin  11101114192D          

 22 23  0  0  0  0            999 V2000
    2.8579   -4.9500    0.0000 C   0  0  0  0  0  0  0  0  0  0  0  0
    2.8579   -4.1250    0.0000 C   0  0  0  0  0  0  0  0  0  0  0  0
    2.1434   -3.7125    0.0000 C   0  0  0  0  0  0  0  0  0  0  0  0
    1.4289   -4.1250    0.0000 C   0  0  0  0  0  0  0  0  0  0  0  0
    1.4289   -4.9500    0.0000 C   0  0  0  0  0  0  0  0  0  0  0  0
    0.7145   -5.3625    0.0000 C   0  0  0  0  0  0  0  0  0  0  0  0
    0.0000   -4.9500    0.0000 C   0  0  0  0  0  0  0  0  0  0  0  0
   -0.7145   -5.3625    0.0000 O   0  0  0  0  0  0  0  0  0  0  0  0
    0.0000   -4.1250    0.0000 C   0  0  0  0  0  0  0  0  0  0  0  0
    0.7145   -3.7125    0.0000 C   0  0  0  0  0  0  0  0  0  0  0  0
    3.5724   -3.7125    0.0000 N   0  0  0  0  0  0  0  0  0  0  0  0
    4.2868   -4.1250    0.0000 C   0  0  0  0  0  0  0  0  0  0  0  0
    5.0013   -3.7125    0.0000 C   0  0  0  0  0  0  0  0  0  0  0  0
    5.0013   -2.8875    0.0000 O   0  0  0  0  0  0  0  0  0  0  0  0
    5.7158   -4.1250    0.0000 C   0  0  0  0  0  0  0  0  0  0  0  0
    6.4302   -3.7125    0.0000 C   0  0  0  0  0  0  0  0  0  0  0  0
    7.1447   -4.1250    0.0000 C   0  0  0  0  0  0  0  0  0  0  0  0
    7.8592   -3.7125    0.0000 O   0  0  0  0  0  0  0  0  0  0  0  0
    7.1447   -4.9500    0.0000 C   0  0  0  0  0  0  0  0  0  0  0  0
    6.4302   -5.3625    0.0000 C   0  0  0  0  0  0  0  0  0  0  0  0
    6.4302   -6.1875    0.0000 O   0  0  0  0  0  0  0  0  0  0  0  0
    5.7158   -4.9500    0.0000 C   0  0  0  0  0  0  0  0  0  0  0  0
  1  2  1  0  0  0  0
  2  3  1  0  0  0  0
  3  4  1  0  0  0  0
  4  5  4  0  0  0  0
  5  6  4  0  0  0  0
  6  7  4  0  0  0  0
  7  8  1  0  0  0  0
  7  9  4  0  0  0  0
  9 10  4  0  0  0  0
  4 10  4  0  0  0  0
  2 11  1  0  0  0  0
 11 12  1  0  0  0  0
 12 13  1  0  0  0  0
 13 14  1  0  0  0  0
 13 15  1  0  0  0  0
 15 16  4  0  0  0  0
 16 17  4  0  0  0  0
 17 18  1  0  0  0  0
 17 19  4  0  0  0  0
 19 20  4  0  0  0  0
 20 21  1  0  0  0  0
 20 22  4  0  0  0  0
 15 22  4  0  0  0  0
M  END

> <ChembankId>
1033

> <SMILES>
CC(Cc1ccc(O)cc1)NCC(O)c2cc(O)cc(O)c2

> <InChI>
1/C17H21NO4/c1-11(6-12-2-4-14(19)5-3-12)18-10-17(22)13-7-15(20)9-16(21)8-13/h2-5,7-9,11,17-22H,6,10H2,1H3

$$$$
1035
  Marvin  11101114192D          

 28 31  0  0  0  0            999 V2000
    5.0013   -0.4125    0.0000 C   0  0  0  0  0  0  0  0  0  0  0  0
    5.0013   -1.2375    0.0000 C   0  0  0  0  0  0  0  0  0  0  0  0
    5.7158   -1.6500    0.0000 C   0  0  0  0  0  0  0  0  0  0  0  0
    5.7158   -2.4750    0.0000 C   0  0  0  0  0  0  0  0  0  0  0  0
    5.0013   -2.8875    0.0000 C   0  0  0  0  0  0  0  0  0  0  0  0
    4.2868   -2.4750    0.0000 C   0  0  0  0  0  0  0  0  0  0  0  0
    3.5724   -2.8875    0.0000 C   0  0  0  0  0  0  0  0  0  0  0  0
    2.8579   -2.4750    0.0000 N   0  0  0  0  0  0  0  0  0  0  0  0
    2.1434   -2.8875    0.0000 C   0  0  0  0  0  0  0  0  0  0  0  0
    1.4289   -2.4750    0.0000 C   0  0  0  0  0  0  0  0  0  0  0  0
    1.4289   -1.6500    0.0000 N   0  0  0  0  0  0  0  0  0  0  0  0
    2.1434   -1.2375    0.0000 C   0  0  0  0  0  0  0  0  0  0  0  0
    2.8579   -1.6500    0.0000 C   0  0  0  0  0  0  0  0  0  0  0  0
    0.7145   -1.2375    0.0000 C   0  0  0  0  0  0  0  0  0  0  0  0
    0.0000   -1.6500    0.0000 C   0  0  0  0  0  0  0  0  0  0  0  0
    0.0000   -2.4750    0.0000 C   0  0  0  0  0  0  0  0  0  0  0  0
   -0.7145   -2.8875    0.0000 C   0  0  0  0  0  0  0  0  0  0  0  0
   -1.4289   -2.4750    0.0000 C   0  0  0  0  0  0  0  0  0  0  0  0
   -1.4289   -1.6500    0.0000 C   0  0  0  0  0  0  0  0  0  0  0  0
   -0.7145   -1.2375    0.0000 C   0  0  0  0  0  0  0  0  0  0  0  0
    0.7145   -0.4125    0.0000 C   0  0  0  0  0  0  0  0  0  0  0  0
    0.0000    0.0000    0.0000 C   0  0  0  0  0  0  0  0  0  0  0  0
    0.0000    0.8250    0.0000 C   0  0  0  0  0  0  0  0  0  0  0  0
    0.7145    1.2375    0.0000 C   0  0  0  0  0  0  0  0  0  0  0  0
    0.7145    2.0625    0.0000 Cl  0  0  0  0  0  0  0  0  0  0  0  0
    1.4289    0.8250    0.0000 C   0  0  0  0  0  0  0  0  0  0  0  0
    1.4289    0.0000    0.0000 C   0  0  0  0  0  0  0  0  0  0  0  0
    4.2868   -1.6500    0.0000 C   0  0  0  0  0  0  0  0  0  0  0  0
  1  2  1  0  0  0  0
  2  3  4  0  0  0  0
  3  4  4  0  0  0  0
  4  5  4  0  0  0  0
  5  6  4  0  0  0  0
  6  7  1  0  0  0  0
  7  8  1  0  0  0  0
  8  9  1  0  0  0  0
  9 10  1  0  0  0  0
 10 11  1  0  0  0  0
 11 12  1  0  0  0  0
 12 13  1  0  0  0  0
  8 13  1  0  0  0  0
 11 14  1  0  0  0  0
 14 15  1  0  0  0  0
 15 16  4  0  0  0  0
 16 17  4  0  0  0  0
 17 18  4  0  0  0  0
 18 19  4  0  0  0  0
 19 20  4  0  0  0  0
 15 20  4  0  0  0  0
 14 21  1  0  0  0  0
 21 22  4  0  0  0  0
 22 23  4  0  0  0  0
 23 24  4  0  0  0  0
 24 25  1  0  0  0  0
 24 26  4  0  0  0  0
 26 27  4  0  0  0  0
 21 27  4  0  0  0  0
  6 28  4  0  0  0  0
  2 28  4  0  0  0  0
M  END

> <ChembankId>
1035

> <SMILES>
Cc1cccc(CN2CCN(CC2)C(c3ccccc3)c4ccc(Cl)cc4)c1

> <InChI>
1/C25H27ClN2/c1-20-6-5-7-21(18-20)19-27-14-16-28(17-15-27)25(22-8-3-2-4-9-22)23-10-12-24(26)13-11-23/h2-13,18,25H,14-17,19H2,1H3

$$$$
1036
  Marvin  11101114192D          

 27 28  0  0  1  0            999 V2000
    0.7145   -4.5375    0.0000 C   0  0  0  0  0  0  0  0  0  0  0  0
    1.4289   -4.1250    0.0000 C   0  0  0  0  0  0  0  0  0  0  0  0
    2.1434   -4.5375    0.0000 O   0  0  0  0  0  0  0  0  0  0  0  0
    2.1434   -5.3625    0.0000 C   0  0  0  0  0  0  0  0  0  0  0  0
    1.4289   -5.7750    0.0000 O   0  0  0  0  0  0  0  0  0  0  0  0
    2.8579   -5.7750    0.0000 C   0  0  2  0  0  0  0  0  0  0  0  0
    2.8579   -6.6000    0.0000 C   0  0  0  0  0  0  0  0  0  0  0  0
    2.1434   -7.0125    0.0000 C   0  0  0  0  0  0  0  0  0  0  0  0
    2.1434   -7.8375    0.0000 C   0  0  0  0  0  0  0  0  0  0  0  0
    2.8579   -8.2500    0.0000 C   0  0  0  0  0  0  0  0  0  0  0  0
    2.8579   -9.0750    0.0000 C   0  0  0  0  0  0  0  0  0  0  0  0
    2.1434   -9.4875    0.0000 C   0  0  0  0  0  0  0  0  0  0  0  0
    1.4289   -9.0750    0.0000 C   0  0  0  0  0  0  0  0  0  0  0  0
    1.4289   -8.2500    0.0000 C   0  0  0  0  0  0  0  0  0  0  0  0
    3.5724   -5.3625    0.0000 N   0  0  0  0  0  0  0  0  0  0  0  0
    3.5724   -4.5375    0.0000 C   0  0  1  0  0  0  0  0  0  0  0  0
    2.8579   -4.1250    0.0000 C   0  0  0  0  0  0  0  0  0  0  0  0
    4.2868   -4.1250    0.0000 C   0  0  0  0  0  0  0  0  0  0  0  0
    4.2868   -3.3000    0.0000 O   0  0  0  0  0  0  0  0  0  0  0  0
    5.0013   -4.5375    0.0000 N   0  0  0  0  0  0  0  0  0  0  0  0
    5.0875   -5.3580    0.0000 C   0  0  0  0  0  0  0  0  0  0  0  0
    5.8945   -5.5295    0.0000 C   0  0  0  0  0  0  0  0  0  0  0  0
    6.3070   -4.8150    0.0000 C   0  0  0  0  0  0  0  0  0  0  0  0
    5.7550   -4.2019    0.0000 C   0  0  1  0  0  0  0  0  0  0  0  0
    5.9265   -3.3950    0.0000 C   0  0  0  0  0  0  0  0  0  0  0  0
    6.7111   -3.1400    0.0000 O   0  0  0  0  0  0  0  0  0  0  0  0
    5.3134   -2.8429    0.0000 O   0  0  0  0  0  0  0  0  0  0  0  0
  1  2  1  0  0  0  0
  2  3  1  0  0  0  0
  3  4  1  0  0  0  0
  4  5  2  0  0  0  0
  4  6  1  0  0  0  0
  6  7  1  0  0  0  0
  7  8  1  0  0  0  0
  8  9  1  0  0  0  0
  9 10  4  0  0  0  0
 10 11  4  0  0  0  0
 11 12  4  0  0  0  0
 12 13  4  0  0  0  0
 13 14  4  0  0  0  0
  9 14  4  0  0  0  0
  6 15  1  1  0  0  0
 15 16  1  0  0  0  0
 16 17  1  1  0  0  0
 16 18  1  0  0  0  0
 18 19  2  0  0  0  0
 18 20  1  0  0  0  0
 20 21  1  0  0  0  0
 21 22  1  0  0  0  0
 22 23  1  0  0  0  0
 23 24  1  0  0  0  0
 20 24  1  0  0  0  0
 24 25  1  6  0  0  0
 25 26  2  0  0  0  0
 25 27  1  0  0  0  0
M  END

> <ChembankId>
1036

> <SMILES>
CCOC(=O)[C@H](CCc1ccccc1)N[C@@H](C)C(=O)N2CCC[C@H]2C(=O)O

> <InChI>
1/C20H28N2O5/c1-3-27-20(26)16(12-11-15-8-5-4-6-9-15)21-14(2)18(23)22-13-7-10-17(22)19(24)25/h4-6,8-9,14,16-17,21H,3,7,10-13H2,1-2H3,(H,24,25)

$$$$
1037
  Marvin  11101114192D          

 25 27  0  0  1  0            999 V2000
    2.7069    0.5635    0.0000 C   0  0  0  0  0  0  0  0  0  0  0  0
    1.9924    0.9760    0.0000 C   0  0  0  0  0  0  0  0  0  0  0  0
    1.2780    0.5635    0.0000 C   0  0  0  0  0  0  0  0  0  0  0  0
    0.5635    0.9760    0.0000 N   0  0  0  0  0  0  0  0  0  0  0  0
    0.5635    1.8010    0.0000 C   0  0  2  0  0  0  0  0  0  0  0  0
    1.2780    2.2135    0.0000 S   0  0  0  0  0  0  0  0  0  0  0  0
    1.9924    1.8010    0.0000 C   0  0  0  0  0  0  0  0  0  0  0  0
   -0.2615    1.8010    0.0000 C   0  0  2  0  0  0  0  0  0  0  0  0
   -0.8449    2.3843    0.0000 N   0  0  0  0  0  0  0  0  0  0  0  0
   -0.6314    3.1812    0.0000 C   0  0  0  0  0  0  0  0  0  0  0  0
    0.1655    3.3948    0.0000 O   0  0  0  0  0  0  0  0  0  0  0  0
   -1.2147    3.7646    0.0000 C   0  0  2  0  0  0  0  0  0  0  0  0
   -2.0116    3.5511    0.0000 N   0  0  0  0  0  0  0  0  0  0  0  0
   -1.0012    4.5615    0.0000 C   0  0  0  0  0  0  0  0  0  0  0  0
   -1.5846    5.1449    0.0000 C   0  0  0  0  0  0  0  0  0  0  0  0
   -1.3710    5.9417    0.0000 C   0  0  0  0  0  0  0  0  0  0  0  0
   -0.5741    6.1553    0.0000 C   0  0  0  0  0  0  0  0  0  0  0  0
   -0.3606    6.9522    0.0000 O   0  0  0  0  0  0  0  0  0  0  0  0
    0.0092    5.5719    0.0000 C   0  0  0  0  0  0  0  0  0  0  0  0
   -0.2043    4.7750    0.0000 C   0  0  0  0  0  0  0  0  0  0  0  0
   -0.2615    0.9760    0.0000 C   0  0  0  0  0  0  0  0  0  0  0  0
   -0.8449    0.3926    0.0000 O   0  0  0  0  0  0  0  0  0  0  0  0
    1.2780   -0.2615    0.0000 C   0  0  0  0  0  0  0  0  0  0  0  0
    0.5635   -0.6740    0.0000 O   0  0  0  0  0  0  0  0  0  0  0  0
    1.9924   -0.6740    0.0000 O   0  0  0  0  0  0  0  0  0  0  0  0
  1  2  1  0  0  0  0
  2  3  2  0  0  0  0
  3  4  1  0  0  0  0
  5  4  1  1  0  0  0
  5  6  1  0  0  0  0
  6  7  1  0  0  0  0
  2  7  1  0  0  0  0
  5  8  1  0  0  0  0
  8  9  1  1  0  0  0
  9 10  1  0  0  0  0
 10 11  2  0  0  0  0
 10 12  1  0  0  0  0
 12 13  1  6  0  0  0
 12 14  1  0  0  0  0
 14 15  4  0  0  0  0
 15 16  4  0  0  0  0
 16 17  4  0  0  0  0
 17 18  1  0  0  0  0
 17 19  4  0  0  0  0
 19 20  4  0  0  0  0
 14 20  4  0  0  0  0
  8 21  1  0  0  0  0
  4 21  1  0  0  0  0
 21 22  2  0  0  0  0
  3 23  1  0  0  0  0
 23 24  2  0  0  0  0
 23 25  1  0  0  0  0
M  END

> <ChembankId>
1037

> <SMILES>
CC1=C(N2[C@H](SC1)[C@H](NC(=O)[C@H](N)c3ccc(O)cc3)C2=O)C(=O)O

> <InChI>
1/C16H17N3O5S/c1-7-6-25-15-11(14(22)19(15)12(7)16(23)24)18-13(21)10(17)8-2-4-9(20)5-3-8/h2-5,10-11,15,20H,6,17H2,1H3,(H,18,21)(H,23,24)

$$$$
1000115
  Marvin  11101114192D          

 26 30  0  0  1  0            999 V2000
    3.1037   -1.1001    0.0000 C   0  0  0  0  0  0  0  0  0  0  0  0
    2.8316   -1.8790    0.0000 O   0  0  0  0  0  0  0  0  0  0  0  0
    3.3700   -2.5041    0.0000 C   0  0  0  0  0  0  0  0  0  0  0  0
    4.1805   -2.3503    0.0000 O   0  0  0  0  0  0  0  0  0  0  0  0
    3.0978   -3.2829    0.0000 C   0  0  2  0  0  0  0  0  0  0  0  0
    2.2873   -3.4366    0.0000 C   0  0  1  0  0  0  0  0  0  0  0  0
    1.7489   -2.8115    0.0000 O   0  0  0  0  0  0  0  0  0  0  0  0
    2.0151   -4.2154    0.0000 C   0  0  0  0  0  0  0  0  0  0  0  0
    2.5535   -4.8405    0.0000 C   0  0  0  0  0  0  0  0  0  0  0  0
    3.3641   -4.6868    0.0000 C   0  0  2  0  0  0  0  0  0  0  0  0
    3.9025   -5.3119    0.0000 C   0  0  0  0  0  0  0  0  0  0  0  0
    4.7131   -5.1582    0.0000 N   0  0  0  0  0  0  0  0  0  0  0  0
    5.2515   -5.7833    0.0000 C   0  0  0  0  0  0  0  0  0  0  0  0
    6.0620   -5.6295    0.0000 C   0  0  0  0  0  0  0  0  0  0  0  0
    6.3342   -4.8507    0.0000 C   0  0  0  0  0  0  0  0  0  0  0  0
    5.7957   -4.2256    0.0000 C   0  0  0  0  0  0  0  0  0  0  0  0
    6.2239   -3.5204    0.0000 N   0  0  0  0  0  0  0  0  0  0  0  0
    7.0269   -3.7096    0.0000 C   0  0  0  0  0  0  0  0  0  0  0  0
    7.7048   -3.2395    0.0000 C   0  0  0  0  0  0  0  0  0  0  0  0
    8.4509   -3.5916    0.0000 C   0  0  0  0  0  0  0  0  0  0  0  0
    8.5191   -4.4138    0.0000 C   0  0  0  0  0  0  0  0  0  0  0  0
    7.8411   -4.8839    0.0000 C   0  0  0  0  0  0  0  0  0  0  0  0
    7.0950   -4.5318    0.0000 C   0  0  0  0  0  0  0  0  0  0  0  0
    4.9852   -4.3793    0.0000 C   0  0  2  0  0  0  0  0  0  0  0  0
    4.4468   -3.7542    0.0000 C   0  0  0  0  0  0  0  0  0  0  0  0
    3.6362   -3.9080    0.0000 C   0  0  2  0  0  0  0  0  0  0  0  0
  1  2  1  0  0  0  0
  2  3  1  0  0  0  0
  3  4  2  0  0  0  0
  5  3  1  1  0  0  0
  5  6  1  0  0  0  0
  6  7  1  6  0  0  0
  6  8  1  0  0  0  0
  8  9  1  0  0  0  0
  9 10  1  0  0  0  0
 10 11  1  1  0  0  0
 11 12  1  0  0  0  0
 12 13  1  0  0  0  0
 13 14  1  0  0  0  0
 14 15  1  0  0  0  0
 15 16  4  0  0  0  0
 16 17  4  0  0  0  0
 17 18  4  0  0  0  0
 18 19  4  0  0  0  0
 19 20  4  0  0  0  0
 20 21  4  0  0  0  0
 21 22  4  0  0  0  0
 22 23  4  0  0  0  0
 15 23  4  0  0  0  0
 18 23  4  0  0  0  0
 16 24  1  0  0  0  0
 12 24  1  0  0  0  0
 24 25  1  1  0  0  0
 26 25  1  1  0  0  0
  5 26  1  0  0  0  0
 10 26  1  0  0  0  0
M  STY  1   1 DAT
M  SAL   1  1  17
M  SDT   1 MRV_IMPLICIT_H                                        
M  SDD   1     0.0000    0.0000    DR    ALL  0       0  
M  SED   1 IMPL_H1
M  END

> <ChembankId>
1000115

> <SMILES>
COC(=O)[C@@H]1[C@@H](O)CC[C@@H]2CN3CCc4c([nH]c5ccccc45)[C@@H]3C[C@H]12

> <InChI>
1/C21H26N2O3/c1-26-21(25)19-15-10-17-20-14(13-4-2-3-5-16(13)22-20)8-9-23(17)11-12(15)6-7-18(19)24/h2-5,12,15,17-19,22,24H,6-11H2,1H3

$$$$
1044
  Marvin  11101114192D          

 28 31  0  0  1  0            999 V2000
    2.8728   -3.9050    0.0000 C   0  0  0  0  0  0  0  0  0  0  0  0
    2.5619   -3.1408    0.0000 C   0  0  2  0  0  0  0  0  0  0  0  0
    1.7447   -3.0280    0.0000 C   0  0  0  0  0  0  0  0  0  0  0  0
    1.2383   -3.6793    0.0000 C   0  0  0  0  0  0  0  0  0  0  0  0
    0.4211   -3.5665    0.0000 C   0  0  0  0  0  0  0  0  0  0  0  0
   -0.0853   -4.2178    0.0000 O   0  0  0  0  0  0  0  0  0  0  0  0
    0.1102   -2.8023    0.0000 O   0  0  0  0  0  0  0  0  0  0  0  0
    3.0683   -2.4895    0.0000 C   0  0  1  0  0  0  0  0  0  0  0  0
    2.8390   -1.6970    0.0000 C   0  0  0  0  0  0  0  0  0  0  0  0
    3.5218   -1.2340    0.0000 C   0  0  0  0  0  0  0  0  0  0  0  0
    4.1731   -1.7404    0.0000 C   0  0  0  0  0  0  0  0  0  0  0  0
    4.9853   -1.5952    0.0000 C   0  0  0  0  0  0  0  0  0  0  0  0
    5.2655   -0.8192    0.0000 C   0  0  1  0  0  0  0  0  0  0  0  0
    4.7337   -0.1885    0.0000 O   0  0  0  0  0  0  0  0  0  0  0  0
    6.0777   -0.6740    0.0000 C   0  0  0  0  0  0  0  0  0  0  0  0
    6.6095   -1.3047    0.0000 C   0  0  2  0  0  0  0  0  0  0  0  0
    7.4216   -1.1595    0.0000 C   0  0  0  0  0  0  0  0  0  0  0  0
    7.9534   -1.7902    0.0000 C   0  0  2  0  0  0  0  0  0  0  0  0
    8.7655   -1.6450    0.0000 O   0  0  0  0  0  0  0  0  0  0  0  0
    7.6731   -2.5662    0.0000 C   0  0  0  0  0  0  0  0  0  0  0  0
    6.8610   -2.7114    0.0000 C   0  0  0  0  0  0  0  0  0  0  0  0
    6.3292   -2.0807    0.0000 C   0  0  1  0  0  0  0  0  0  0  0  0
    6.0489   -2.8566    0.0000 C   0  0  0  0  0  0  0  0  0  0  0  0
    5.5171   -2.2259    0.0000 C   0  0  0  0  0  0  0  0  0  0  0  0
    5.2368   -3.0018    0.0000 C   0  0  0  0  0  0  0  0  0  0  0  0
    4.4247   -3.1470    0.0000 C   0  0  0  0  0  0  0  0  0  0  0  0
    3.8928   -2.5163    0.0000 C   0  0  2  0  0  0  0  0  0  0  0  0
    3.5330   -3.2587    0.0000 C   0  0  0  0  0  0  0  0  0  0  0  0
  2  1  1  6  0  0  0
  2  3  1  0  0  0  0
  3  4  1  0  0  0  0
  4  5  1  0  0  0  0
  5  6  2  0  0  0  0
  5  7  1  0  0  0  0
  8  2  1  1  0  0  0
  8  9  1  0  0  0  0
  9 10  1  0  0  0  0
 10 11  1  0  0  0  0
 11 12  1  0  0  0  0
 12 13  1  0  0  0  0
 13 14  1  1  0  0  0
 13 15  1  0  0  0  0
 16 15  1  6  0  0  0
 16 17  1  0  0  0  0
 17 18  1  0  0  0  0
 18 19  1  6  0  0  0
 18 20  1  0  0  0  0
 20 21  1  0  0  0  0
 21 22  1  0  0  0  0
 16 22  1  0  0  0  0
 22 23  1  1  0  0  0
 22 24  1  0  0  0  0
 12 24  1  0  0  0  0
 24 25  1  0  0  0  0
 25 26  1  0  0  0  0
 26 27  1  0  0  0  0
  8 27  1  0  0  0  0
 11 27  1  0  0  0  0
 27 28  1  1  0  0  0
M  END

> <ChembankId>
1044

> <SMILES>
C[C@H](CCC(=O)O)[C@H]1CCC2C3[C@@H](O)C[C@@H]4C[C@H](O)CC[C@]4(C)C3CC[C@]12C

> <InChI>
1/C24H40O4/c1-14(4-7-21(27)28)17-5-6-18-22-19(9-11-24(17,18)3)23(2)10-8-16(25)12-15(23)13-20(22)26/h14-20,22,25-26H,4-13H2,1-3H3,(H,27,28)

$$$$
1045
  Marvin  11101114192D          

 29 32  0  0  1  0            999 V2000
    2.0630   -1.4167    0.0000 C   0  0  0  0  0  0  0  0  0  0  0  0
    2.8390   -1.6970    0.0000 C   0  0  2  0  0  0  0  0  0  0  0  0
    3.5218   -1.2340    0.0000 C   0  0  0  0  0  0  0  0  0  0  0  0
    4.1731   -1.7404    0.0000 C   0  0  0  0  0  0  0  0  0  0  0  0
    4.9853   -1.5952    0.0000 C   0  0  0  0  0  0  0  0  0  0  0  0
    5.2655   -0.8192    0.0000 C   0  0  0  0  0  0  0  0  0  0  0  0
    6.0777   -0.6740    0.0000 C   0  0  2  0  0  0  0  0  0  0  0  0
    6.3580    0.1019    0.0000 F   0  0  0  0  0  0  0  0  0  0  0  0
    6.6095   -1.3047    0.0000 C   0  0  0  0  0  0  0  0  0  0  0  0
    7.4216   -1.1595    0.0000 C   0  0  0  0  0  0  0  0  0  0  0  0
    7.9534   -1.7902    0.0000 C   0  0  0  0  0  0  0  0  0  0  0  0
    8.7655   -1.6450    0.0000 O   0  0  0  0  0  0  0  0  0  0  0  0
    7.6731   -2.5662    0.0000 C   0  0  0  0  0  0  0  0  0  0  0  0
    6.8610   -2.7114    0.0000 C   0  0  0  0  0  0  0  0  0  0  0  0
    6.3292   -2.0807    0.0000 C   0  0  1  0  0  0  0  0  0  0  0  0
    6.0489   -2.8566    0.0000 C   0  0  0  0  0  0  0  0  0  0  0  0
    5.5171   -2.2259    0.0000 C   0  0  2  0  0  0  0  0  0  0  0  0
    5.5766   -3.0487    0.0000 F   0  0  0  0  0  0  0  0  0  0  0  0
    5.2368   -3.0018    0.0000 C   0  0  1  0  0  0  0  0  0  0  0  0
    5.7686   -3.6325    0.0000 O   0  0  0  0  0  0  0  0  0  0  0  0
    4.4247   -3.1470    0.0000 C   0  0  0  0  0  0  0  0  0  0  0  0
    3.8928   -2.5163    0.0000 C   0  0  1  0  0  0  0  0  0  0  0  0
    3.5330   -3.2587    0.0000 C   0  0  0  0  0  0  0  0  0  0  0  0
    3.0683   -2.4895    0.0000 C   0  0  2  0  0  0  0  0  0  0  0  0
    2.9469   -3.3055    0.0000 O   0  0  0  0  0  0  0  0  0  0  0  0
    2.3074   -2.8084    0.0000 C   0  0  0  0  0  0  0  0  0  0  0  0
    2.2031   -3.6268    0.0000 O   0  0  0  0  0  0  0  0  0  0  0  0
    1.6508   -2.3089    0.0000 C   0  0  0  0  0  0  0  0  0  0  0  0
    0.8899   -2.6277    0.0000 O   0  0  0  0  0  0  0  0  0  0  0  0
  2  1  1  6  0  0  0
  2  3  1  0  0  0  0
  3  4  1  0  0  0  0
  4  5  1  0  0  0  0
  5  6  1  0  0  0  0
  6  7  1  0  0  0  0
  7  8  1  6  0  0  0
  7  9  1  0  0  0  0
  9 10  2  0  0  0  0
 10 11  1  0  0  0  0
 11 12  2  0  0  0  0
 11 13  1  0  0  0  0
 13 14  2  0  0  0  0
 14 15  1  0  0  0  0
  9 15  1  0  0  0  0
 15 16  1  1  0  0  0
 15 17  1  0  0  0  0
  5 17  1  0  0  0  0
 17 18  1  6  0  0  0
 17 19  1  0  0  0  0
 19 20  1  1  0  0  0
 19 21  1  0  0  0  0
 21 22  1  0  0  0  0
  4 22  1  0  0  0  0
 22 23  1  1  0  0  0
 22 24  1  0  0  0  0
  2 24  1  0  0  0  0
 24 25  1  6  0  0  0
 24 26  1  1  0  0  0
 26 27  2  0  0  0  0
 26 28  1  0  0  0  0
 28 29  1  0  0  0  0
M  END

> <ChembankId>
1045

> <SMILES>
C[C@@H]1CC2C3C[C@H](F)C4=CC(=O)C=C[C@]4(C)[C@@]3(F)[C@@H](O)C[C@]2(C)[C@@]1(O)C(=O)CO

> <InChI>
1/C22H28F2O5/c1-11-6-13-14-8-16(23)15-7-12(26)4-5-19(15,2)21(14,24)17(27)9-20(13,3)22(11,29)18(28)10-25/h4-5,7,11,13-14,16-17,25,27,29H,6,8-10H2,1-3H3

$$$$
1050
  Marvin  11101114192D          

 18 19  0  0  0  0            999 V2000
    2.8579   -0.8250    0.0000 N   0  0  0  0  0  0  0  0  0  0  0  0
    2.8579   -1.6500    0.0000 C   0  0  0  0  0  0  0  0  0  0  0  0
    3.5724   -2.0625    0.0000 C   0  0  0  0  0  0  0  0  0  0  0  0
    3.5724   -2.8875    0.0000 C   0  0  0  0  0  0  0  0  0  0  0  0
    2.8579   -3.3000    0.0000 C   0  0  0  0  0  0  0  0  0  0  0  0
    2.1434   -2.8875    0.0000 C   0  0  0  0  0  0  0  0  0  0  0  0
    2.1434   -2.0625    0.0000 C   0  0  0  0  0  0  0  0  0  0  0  0
    2.8579   -4.1250    0.0000 S   0  0  0  0  0  0  0  0  0  0  0  0
    2.0329   -4.1250    0.0000 O   0  0  0  0  0  0  0  0  0  0  0  0
    3.6829   -4.1250    0.0000 O   0  0  0  0  0  0  0  0  0  0  0  0
    2.8579   -4.9500    0.0000 N   0  0  0  0  0  0  0  0  0  0  0  0
    2.1434   -5.3625    0.0000 C   0  0  0  0  0  0  0  0  0  0  0  0
    2.1434   -6.1875    0.0000 C   0  0  0  0  0  0  0  0  0  0  0  0
    1.4289   -6.6000    0.0000 N   0  0  0  0  0  0  0  0  0  0  0  0
    0.7145   -6.1875    0.0000 N   0  0  0  0  0  0  0  0  0  0  0  0
    0.7145   -5.3625    0.0000 C   0  0  0  0  0  0  0  0  0  0  0  0
   -0.0000   -4.9500    0.0000 Cl  0  0  0  0  0  0  0  0  0  0  0  0
    1.4289   -4.9500    0.0000 C   0  0  0  0  0  0  0  0  0  0  0  0
  1  2  1  0  0  0  0
  2  3  4  0  0  0  0
  3  4  4  0  0  0  0
  4  5  4  0  0  0  0
  5  6  4  0  0  0  0
  6  7  4  0  0  0  0
  2  7  4  0  0  0  0
  5  8  1  0  0  0  0
  8  9  2  0  0  0  0
  8 10  2  0  0  0  0
  8 11  1  0  0  0  0
 11 12  1  0  0  0  0
 12 13  4  0  0  0  0
 13 14  4  0  0  0  0
 14 15  4  0  0  0  0
 15 16  4  0  0  0  0
 16 17  1  0  0  0  0
 16 18  4  0  0  0  0
 12 18  4  0  0  0  0
M  END

> <ChembankId>
1050

> <SMILES>
Nc1ccc(cc1)S(=O)(=O)Nc2cnnc(Cl)c2

> <InChI>
1/C10H9ClN4O2S/c11-10-5-8(6-13-14-10)15-18(16,17)9-3-1-7(12)2-4-9/h1-6H,12H2,(H,14,15)

$$$$
1053
  Marvin  11101114192D          

 28 29  0  0  0  0            999 V2000
   -4.2868   -3.3000    0.0000 C   0  0  0  0  0  0  0  0  0  0  0  0
   -4.2868   -2.4750    0.0000 O   0  0  0  0  0  0  0  0  0  0  0  0
   -3.5724   -2.0625    0.0000 C   0  0  0  0  0  0  0  0  0  0  0  0
   -3.5724   -1.2375    0.0000 C   0  0  0  0  0  0  0  0  0  0  0  0
   -2.8579   -0.8250    0.0000 C   0  0  0  0  0  0  0  0  0  0  0  0
   -2.1434   -1.2375    0.0000 C   0  0  0  0  0  0  0  0  0  0  0  0
   -2.1434   -2.0625    0.0000 C   0  0  0  0  0  0  0  0  0  0  0  0
   -1.4289   -2.4750    0.0000 O   0  0  0  0  0  0  0  0  0  0  0  0
   -1.4289   -3.3000    0.0000 C   0  0  0  0  0  0  0  0  0  0  0  0
   -2.8579   -2.4750    0.0000 C   0  0  0  0  0  0  0  0  0  0  0  0
   -2.8579   -3.3000    0.0000 O   0  0  0  0  0  0  0  0  0  0  0  0
   -2.1434   -3.7125    0.0000 C   0  0  0  0  0  0  0  0  0  0  0  0
   -2.8579   -0.0000    0.0000 C   0  0  0  0  0  0  0  0  0  0  0  0
   -3.5724    0.4125    0.0000 O   0  0  0  0  0  0  0  0  0  0  0  0
   -2.1434    0.4125    0.0000 N   0  0  0  0  0  0  0  0  0  0  0  0
   -2.1434    1.2375    0.0000 C   0  0  0  0  0  0  0  0  0  0  0  0
   -1.4289    1.6500    0.0000 C   0  0  0  0  0  0  0  0  0  0  0  0
   -1.4289    2.4750    0.0000 C   0  0  0  0  0  0  0  0  0  0  0  0
   -0.7145    2.8875    0.0000 C   0  0  0  0  0  0  0  0  0  0  0  0
    0.0000    2.4750    0.0000 C   0  0  0  0  0  0  0  0  0  0  0  0
    0.7145    2.8875    0.0000 O   0  0  0  0  0  0  0  0  0  0  0  0
    1.4289    2.4750    0.0000 C   0  0  0  0  0  0  0  0  0  0  0  0
    2.1434    2.8875    0.0000 C   0  0  0  0  0  0  0  0  0  0  0  0
    2.8579    2.4750    0.0000 N   0  0  0  0  0  0  0  0  0  0  0  0
    3.5724    2.8875    0.0000 C   0  0  0  0  0  0  0  0  0  0  0  0
    2.8579    1.6500    0.0000 C   0  0  0  0  0  0  0  0  0  0  0  0
    0.0000    1.6500    0.0000 C   0  0  0  0  0  0  0  0  0  0  0  0
   -0.7145    1.2375    0.0000 C   0  0  0  0  0  0  0  0  0  0  0  0
  1  2  1  0  0  0  0
  2  3  1  0  0  0  0
  3  4  4  0  0  0  0
  4  5  4  0  0  0  0
  5  6  4  0  0  0  0
  6  7  4  0  0  0  0
  7  8  1  0  0  0  0
  8  9  1  0  0  0  0
  7 10  4  0  0  0  0
  3 10  4  0  0  0  0
 10 11  1  0  0  0  0
 11 12  1  0  0  0  0
  5 13  1  0  0  0  0
 13 14  2  0  0  0  0
 13 15  1  0  0  0  0
 15 16  1  0  0  0  0
 16 17  1  0  0  0  0
 17 18  4  0  0  0  0
 18 19  4  0  0  0  0
 19 20  4  0  0  0  0
 20 21  1  0  0  0  0
 21 22  1  0  0  0  0
 22 23  1  0  0  0  0
 23 24  1  0  0  0  0
 24 25  1  0  0  0  0
 24 26  1  0  0  0  0
 20 27  4  0  0  0  0
 27 28  4  0  0  0  0
 17 28  4  0  0  0  0
M  END

> <ChembankId>
1053

> <SMILES>
COc1cc(cc(OC)c1OC)C(=O)NCc2ccc(OCCN(C)C)cc2

> <InChI>
1/C21H28N2O5/c1-23(2)10-11-28-17-8-6-15(7-9-17)14-22-21(24)16-12-18(25-3)20(27-5)19(13-16)26-4/h6-9,12-13H,10-11,14H2,1-5H3,(H,22,24)

$$$$
1055
  Marvin  11101114192D          

 22 23  0  0  1  0            999 V2000
    4.2868    0.8250    0.0000 C   0  0  0  0  0  0  0  0  0  0  0  0
    5.0013    0.4125    0.0000 C   0  0  0  0  0  0  0  0  0  0  0  0
    4.5888   -0.3020    0.0000 C   0  0  0  0  0  0  0  0  0  0  0  0
    5.4138    1.1270    0.0000 C   0  0  0  0  0  0  0  0  0  0  0  0
    5.7158    0.0000    0.0000 N   0  0  0  0  0  0  0  0  0  0  0  0
    6.4302    0.4125    0.0000 C   0  0  0  0  0  0  0  0  0  0  0  0
    7.1447    0.0000    0.0000 C   0  0  0  0  0  0  0  0  0  0  0  0
    7.1447   -0.8250    0.0000 O   0  0  0  0  0  0  0  0  0  0  0  0
    7.8592    0.4125    0.0000 C   0  0  0  0  0  0  0  0  0  0  0  0
    8.5737    0.0000    0.0000 O   0  0  0  0  0  0  0  0  0  0  0  0
    9.2881    0.4125    0.0000 C   0  0  0  0  0  0  0  0  0  0  0  0
    9.2881    1.2375    0.0000 C   0  0  0  0  0  0  0  0  0  0  0  0
   10.0026    1.6500    0.0000 C   0  0  0  0  0  0  0  0  0  0  0  0
   10.7171    1.2375    0.0000 C   0  0  0  0  0  0  0  0  0  0  0  0
   10.7171    0.4125    0.0000 C   0  0  0  0  0  0  0  0  0  0  0  0
   11.4315    0.0000    0.0000 C   0  0  0  0  0  0  0  0  0  0  0  0
   11.4315   -0.8250    0.0000 C   0  0  1  0  0  0  0  0  0  0  0  0
   12.1460   -1.2375    0.0000 O   0  0  0  0  0  0  0  0  0  0  0  0
   10.7171   -1.2375    0.0000 C   0  0  1  0  0  0  0  0  0  0  0  0
   10.7171   -2.0625    0.0000 O   0  0  0  0  0  0  0  0  0  0  0  0
   10.0026   -0.8250    0.0000 C   0  0  0  0  0  0  0  0  0  0  0  0
   10.0026    0.0000    0.0000 C   0  0  0  0  0  0  0  0  0  0  0  0
  1  2  1  0  0  0  0
  2  3  1  0  0  0  0
  2  4  1  0  0  0  0
  2  5  1  0  0  0  0
  5  6  1  0  0  0  0
  6  7  1  0  0  0  0
  7  8  1  0  0  0  0
  7  9  1  0  0  0  0
  9 10  1  0  0  0  0
 10 11  1  0  0  0  0
 11 12  4  0  0  0  0
 12 13  4  0  0  0  0
 13 14  4  0  0  0  0
 14 15  4  0  0  0  0
 15 16  1  0  0  0  0
 16 17  1  0  0  0  0
 17 18  1  1  0  0  0
 17 19  1  0  0  0  0
 19 20  1  1  0  0  0
 19 21  1  0  0  0  0
 21 22  1  0  0  0  0
 11 22  4  0  0  0  0
 15 22  4  0  0  0  0
M  END

> <ChembankId>
1055

> <SMILES>
CC(C)(C)NCC(O)COc1cccc2C[C@@H](O)[C@@H](O)Cc12

> <InChI>
1/C17H27NO4/c1-17(2,3)18-9-12(19)10-22-16-6-4-5-11-7-14(20)15(21)8-13(11)16/h4-6,12,14-15,18-21H,7-10H2,1-3H3

$$$$
1057
  Marvin  11101114192D          

 21 23  0  0  0  0            999 V2000
    1.9393    2.2413    0.0000 O   0  0  0  0  0  0  0  0  0  0  0  0
    2.7643    2.2413    0.0000 C   0  0  0  0  0  0  0  0  0  0  0  0
    2.7643    1.4163    0.0000 C   0  0  0  0  0  0  0  0  0  0  0  0
    3.4788    1.0038    0.0000 C   0  0  0  0  0  0  0  0  0  0  0  0
    3.4788    0.1788    0.0000 N   0  0  0  0  0  0  0  0  0  0  0  0
    4.1462   -0.3062    0.0000 C   0  0  0  0  0  0  0  0  0  0  0  0
    3.8913   -1.0908    0.0000 C   0  0  0  0  0  0  0  0  0  0  0  0
    3.0663   -1.0908    0.0000 C   0  0  0  0  0  0  0  0  0  0  0  0
    2.8113   -0.3062    0.0000 C   0  0  0  0  0  0  0  0  0  0  0  0
    2.7643    3.0663    0.0000 C   0  0  0  0  0  0  0  0  0  0  0  0
    2.0498    3.4788    0.0000 C   0  0  0  0  0  0  0  0  0  0  0  0
    2.0498    4.3038    0.0000 C   0  0  0  0  0  0  0  0  0  0  0  0
    2.7643    4.7163    0.0000 C   0  0  0  0  0  0  0  0  0  0  0  0
    3.4788    4.3038    0.0000 C   0  0  0  0  0  0  0  0  0  0  0  0
    3.4788    3.4788    0.0000 C   0  0  0  0  0  0  0  0  0  0  0  0
    3.5893    2.2413    0.0000 C   0  0  0  0  0  0  0  0  0  0  0  0
    4.0018    2.9557    0.0000 C   0  0  0  0  0  0  0  0  0  0  0  0
    4.8268    2.9557    0.0000 C   0  0  0  0  0  0  0  0  0  0  0  0
    5.2393    2.2413    0.0000 C   0  0  0  0  0  0  0  0  0  0  0  0
    4.8268    1.5268    0.0000 C   0  0  0  0  0  0  0  0  0  0  0  0
    4.0018    1.5268    0.0000 C   0  0  0  0  0  0  0  0  0  0  0  0
  1  2  1  0  0  0  0
  2  3  1  0  0  0  0
  3  4  1  0  0  0  0
  4  5  1  0  0  0  0
  5  6  1  0  0  0  0
  6  7  1  0  0  0  0
  7  8  1  0  0  0  0
  8  9  1  0  0  0  0
  5  9  1  0  0  0  0
  2 10  1  0  0  0  0
 10 11  1  0  0  0  0
 11 12  1  0  0  0  0
 12 13  1  0  0  0  0
 13 14  1  0  0  0  0
 14 15  1  0  0  0  0
 10 15  1  0  0  0  0
  2 16  1  0  0  0  0
 16 17  4  0  0  0  0
 17 18  4  0  0  0  0
 18 19  4  0  0  0  0
 19 20  4  0  0  0  0
 20 21  4  0  0  0  0
 16 21  4  0  0  0  0
M  END

> <ChembankId>
1057

> <SMILES>
OC(CCN1CCCC1)(C2CCCCC2)c3ccccc3

> <InChI>
1/C19H29NO/c21-19(17-9-3-1-4-10-17,18-11-5-2-6-12-18)13-16-20-14-7-8-15-20/h1,3-4,9-10,18,21H,2,5-8,11-16H2

$$$$
1058
  Marvin  11101114192D          

 25 29  0  0  1  0            999 V2000
    3.6512   -3.2503    0.0000 C   0  0  0  0  0  0  0  0  0  0  0  0
    3.9432   -2.4787    0.0000 C   0  0  2  0  0  0  0  0  0  0  0  0
    4.5294   -3.0593    0.0000 C   0  0  0  0  0  0  0  0  0  0  0  0
    5.3252   -2.8420    0.0000 C   0  0  0  0  0  0  0  0  0  0  0  0
    5.5350   -2.0441    0.0000 C   0  0  0  0  0  0  0  0  0  0  0  0
    4.9488   -1.4635    0.0000 C   0  0  0  0  0  0  0  0  0  0  0  0
    5.1586   -0.6656    0.0000 C   0  0  0  0  0  0  0  0  0  0  0  0
    5.9544   -0.4483    0.0000 C   0  0  0  0  0  0  0  0  0  0  0  0
    6.5406   -1.0289    0.0000 C   0  0  0  0  0  0  0  0  0  0  0  0
    7.3364   -0.8116    0.0000 C   0  0  0  0  0  0  0  0  0  0  0  0
    7.9226   -1.3922    0.0000 C   0  0  0  0  0  0  0  0  0  0  0  0
    8.7462   -1.3451    0.0000 O   0  0  0  0  0  0  0  0  0  0  0  0
    9.0455   -2.1139    0.0000 N   0  0  0  0  0  0  0  0  0  0  0  0
    8.4069   -2.6361    0.0000 C   0  0  0  0  0  0  0  0  0  0  0  0
    7.7128   -2.1901    0.0000 C   0  0  0  0  0  0  0  0  0  0  0  0
    6.9170   -2.4074    0.0000 C   0  0  0  0  0  0  0  0  0  0  0  0
    6.3308   -1.8268    0.0000 C   0  0  2  0  0  0  0  0  0  0  0  0
    6.1211   -2.6247    0.0000 C   0  0  0  0  0  0  0  0  0  0  0  0
    4.1530   -1.6808    0.0000 C   0  0  0  0  0  0  0  0  0  0  0  0
    3.4589   -1.2348    0.0000 C   0  0  0  0  0  0  0  0  0  0  0  0
    2.8203   -1.7570    0.0000 C   0  0  0  0  0  0  0  0  0  0  0  0
    3.1196   -2.5258    0.0000 C   0  0  2  0  0  0  0  0  0  0  0  0
    2.3903   -2.9115    0.0000 O   0  0  0  0  0  0  0  0  0  0  0  0
    3.0717   -3.3494    0.0000 C   0  0  0  0  0  0  0  0  0  0  0  0
    3.0238   -4.1730    0.0000 C   0  0  0  0  0  0  0  0  0  0  0  0
  2  1  1  1  0  0  0
  2  3  1  0  0  0  0
  3  4  1  0  0  0  0
  4  5  1  0  0  0  0
  5  6  1  0  0  0  0
  6  7  1  0  0  0  0
  7  8  1  0  0  0  0
  8  9  1  0  0  0  0
  9 10  2  0  0  0  0
 10 11  1  0  0  0  0
 11 12  4  0  0  0  0
 12 13  4  0  0  0  0
 13 14  4  0  0  0  0
 14 15  4  0  0  0  0
 11 15  4  0  0  0  0
 15 16  1  0  0  0  0
 16 17  1  0  0  0  0
  5 17  1  0  0  0  0
  9 17  1  0  0  0  0
 17 18  1  1  0  0  0
  6 19  1  0  0  0  0
  2 19  1  0  0  0  0
 19 20  1  0  0  0  0
 20 21  1  0  0  0  0
 21 22  1  0  0  0  0
  2 22  1  0  0  0  0
 22 23  1  1  0  0  0
 22 24  1  6  0  0  0
 24 25  3  0  0  0  0
M  END

> <ChembankId>
1058

> <SMILES>
C[C@@]12CCC3C(CCC4=Cc5oncc5C[C@]34C)C2CC[C@@]1(O)C#C

> <InChI>
1/C22H27NO2/c1-4-22(24)10-8-18-16-6-5-15-11-19-14(13-23-25-19)12-20(15,2)17(16)7-9-21(18,22)3/h1,11,13,16-18,24H,5-10,12H2,2-3H3

$$$$
1059
  Marvin  11101114192D          

 21 23  0  0  0  0            999 V2000
    2.3747    3.6320    0.0000 C   0  0  0  0  0  0  0  0  0  0  0  0
    2.3747    2.8070    0.0000 N   0  0  0  0  0  0  0  0  0  0  0  0
    1.6603    2.3945    0.0000 C   0  0  0  0  0  0  0  0  0  0  0  0
    3.0892    2.3945    0.0000 C   0  0  0  0  0  0  0  0  0  0  0  0
    3.0892    1.5695    0.0000 C   0  0  0  0  0  0  0  0  0  0  0  0
    3.8037    1.1570    0.0000 C   0  0  0  0  0  0  0  0  0  0  0  0
    3.8037    0.3320    0.0000 C   0  0  0  0  0  0  0  0  0  0  0  0
    4.5470   -0.0260    0.0000 C   0  0  0  0  0  0  0  0  0  0  0  0
    5.1517    0.5352    0.0000 C   0  0  0  0  0  0  0  0  0  0  0  0
    5.9401    0.2920    0.0000 C   0  0  0  0  0  0  0  0  0  0  0  0
    6.1237   -0.5123    0.0000 C   0  0  0  0  0  0  0  0  0  0  0  0
    5.5189   -1.0735    0.0000 C   0  0  0  0  0  0  0  0  0  0  0  0
    4.7305   -0.8303    0.0000 C   0  0  0  0  0  0  0  0  0  0  0  0
    4.2162   -1.4753    0.0000 C   0  0  0  0  0  0  0  0  0  0  0  0
    3.3912   -1.4753    0.0000 O   0  0  0  0  0  0  0  0  0  0  0  0
    2.8768   -0.8303    0.0000 C   0  0  0  0  0  0  0  0  0  0  0  0
    2.0884   -1.0735    0.0000 C   0  0  0  0  0  0  0  0  0  0  0  0
    1.4837   -0.5123    0.0000 C   0  0  0  0  0  0  0  0  0  0  0  0
    1.6673    0.2920    0.0000 C   0  0  0  0  0  0  0  0  0  0  0  0
    2.4556    0.5352    0.0000 C   0  0  0  0  0  0  0  0  0  0  0  0
    3.0604   -0.0260    0.0000 C   0  0  0  0  0  0  0  0  0  0  0  0
  1  2  1  0  0  0  0
  2  3  1  0  0  0  0
  2  4  1  0  0  0  0
  4  5  1  0  0  0  0
  5  6  1  0  0  0  0
  6  7  2  0  0  0  0
  7  8  1  0  0  0  0
  8  9  4  0  0  0  0
  9 10  4  0  0  0  0
 10 11  4  0  0  0  0
 11 12  4  0  0  0  0
 12 13  4  0  0  0  0
  8 13  4  0  0  0  0
 13 14  1  0  0  0  0
 14 15  1  0  0  0  0
 15 16  1  0  0  0  0
 16 17  4  0  0  0  0
 17 18  4  0  0  0  0
 18 19  4  0  0  0  0
 19 20  4  0  0  0  0
 20 21  4  0  0  0  0
  7 21  1  0  0  0  0
 16 21  4  0  0  0  0
M  END

> <ChembankId>
1059

> <SMILES>
CN(C)CC/C=C\1/c2ccccc2COc3ccccc13

> <InChI>
1/C19H21NO/c1-20(2)13-7-11-17-16-9-4-3-8-15(16)14-21-19-12-6-5-10-18(17)19/h3-6,8-12H,7,13-14H2,1-2H3

$$$$
1060
  Marvin  11101114192D          

 21 24  0  0  0  0            999 V2000
    2.1434    4.5375    0.0000 C   0  0  0  0  0  0  0  0  0  0  0  0
    2.1434    3.7125    0.0000 N   0  0  0  0  0  0  0  0  0  0  0  0
    2.8579    3.3000    0.0000 C   0  0  0  0  0  0  0  0  0  0  0  0
    2.8579    2.4750    0.0000 C   0  0  0  0  0  0  0  0  0  0  0  0
    2.1434    2.0625    0.0000 C   0  0  0  0  0  0  0  0  0  0  0  0
    2.1434    1.2375    0.0000 C   0  0  0  0  0  0  0  0  0  0  0  0
    2.8579    0.8250    0.0000 C   0  0  0  0  0  0  0  0  0  0  0  0
    3.5724    1.2375    0.0000 C   0  0  0  0  0  0  0  0  0  0  0  0
    4.2868    0.8250    0.0000 C   0  0  0  0  0  0  0  0  0  0  0  0
    4.2868   -0.0000    0.0000 C   0  0  0  0  0  0  0  0  0  0  0  0
    3.5724   -0.4125    0.0000 C   0  0  0  0  0  0  0  0  0  0  0  0
    2.8579    0.0000    0.0000 C   0  0  0  0  0  0  0  0  0  0  0  0
    2.1434   -0.4125    0.0000 S   0  0  0  0  0  0  0  0  0  0  0  0
    1.4289    0.0000    0.0000 C   0  0  0  0  0  0  0  0  0  0  0  0
    0.7145   -0.4125    0.0000 C   0  0  0  0  0  0  0  0  0  0  0  0
    0.0000    0.0000    0.0000 C   0  0  0  0  0  0  0  0  0  0  0  0
    0.0000    0.8250    0.0000 C   0  0  0  0  0  0  0  0  0  0  0  0
    0.7145    1.2375    0.0000 C   0  0  0  0  0  0  0  0  0  0  0  0
    1.4289    0.8250    0.0000 C   0  0  0  0  0  0  0  0  0  0  0  0
    1.4289    2.4750    0.0000 C   0  0  0  0  0  0  0  0  0  0  0  0
    1.4289    3.3000    0.0000 C   0  0  0  0  0  0  0  0  0  0  0  0
  1  2  1  0  0  0  0
  2  3  1  0  0  0  0
  3  4  1  0  0  0  0
  4  5  1  0  0  0  0
  5  6  2  0  0  0  0
  6  7  1  0  0  0  0
  7  8  4  0  0  0  0
  8  9  4  0  0  0  0
  9 10  4  0  0  0  0
 10 11  4  0  0  0  0
 11 12  4  0  0  0  0
  7 12  4  0  0  0  0
 12 13  1  0  0  0  0
 13 14  1  0  0  0  0
 14 15  4  0  0  0  0
 15 16  4  0  0  0  0
 16 17  4  0  0  0  0
 17 18  4  0  0  0  0
 18 19  4  0  0  0  0
  6 19  1  0  0  0  0
 14 19  4  0  0  0  0
  5 20  1  0  0  0  0
 20 21  1  0  0  0  0
  2 21  1  0  0  0  0
M  END

> <ChembankId>
1060

> <SMILES>
CN1CCC(=C2c3ccccc3Sc4ccccc24)CC1

> <InChI>
1/C19H19NS/c1-20-12-10-14(11-13-20)19-15-6-2-4-8-17(15)21-18-9-5-3-7-16(18)19/h2-9H,10-13H2,1H3

$$$$
1061
  Marvin  11101114192D          

 19 21  0  0  0  0            999 V2000
    0.0000   -1.6500    0.0000 N   0  0  0  0  0  0  0  0  0  0  0  0
    0.7145   -1.2375    0.0000 C   0  0  0  0  0  0  0  0  0  0  0  0
    0.7145   -0.4125    0.0000 N   0  0  0  0  0  0  0  0  0  0  0  0
    1.4289    0.0000    0.0000 C   0  0  0  0  0  0  0  0  0  0  0  0
    1.4289    0.8250    0.0000 N   0  0  0  0  0  0  0  0  0  0  0  0
    2.1434   -0.4125    0.0000 C   0  0  0  0  0  0  0  0  0  0  0  0
    2.8579    0.0000    0.0000 N   0  0  0  0  0  0  0  0  0  0  0  0
    3.5724   -0.4125    0.0000 C   0  0  0  0  0  0  0  0  0  0  0  0
    3.5724   -1.2375    0.0000 C   0  0  0  0  0  0  0  0  0  0  0  0
    4.2868   -1.6500    0.0000 N   0  0  0  0  0  0  0  0  0  0  0  0
    2.8579   -1.6500    0.0000 N   0  0  0  0  0  0  0  0  0  0  0  0
    2.1434   -1.2375    0.0000 C   0  0  0  0  0  0  0  0  0  0  0  0
    1.4289   -1.6500    0.0000 N   0  0  0  0  0  0  0  0  0  0  0  0
    4.2868   -0.0000    0.0000 C   0  0  0  0  0  0  0  0  0  0  0  0
    4.2868    0.8250    0.0000 C   0  0  0  0  0  0  0  0  0  0  0  0
    5.0013    1.2375    0.0000 C   0  0  0  0  0  0  0  0  0  0  0  0
    5.7158    0.8250    0.0000 C   0  0  0  0  0  0  0  0  0  0  0  0
    5.7158   -0.0000    0.0000 C   0  0  0  0  0  0  0  0  0  0  0  0
    5.0013   -0.4125    0.0000 C   0  0  0  0  0  0  0  0  0  0  0  0
  1  2  1  0  0  0  0
  2  3  4  0  0  0  0
  3  4  4  0  0  0  0
  4  5  1  0  0  0  0
  4  6  4  0  0  0  0
  6  7  4  0  0  0  0
  7  8  4  0  0  0  0
  8  9  4  0  0  0  0
  9 10  1  0  0  0  0
  9 11  4  0  0  0  0
 11 12  4  0  0  0  0
  6 12  4  0  0  0  0
 12 13  4  0  0  0  0
  2 13  4  0  0  0  0
  8 14  1  0  0  0  0
 14 15  4  0  0  0  0
 15 16  4  0  0  0  0
 16 17  4  0  0  0  0
 17 18  4  0  0  0  0
 18 19  4  0  0  0  0
 14 19  4  0  0  0  0
M  END

> <ChembankId>
1061

> <SMILES>
Nc1nc(N)c2nc(c(N)nc2n1)c3ccccc3

> <InChI>
1/C12H11N7/c13-9-7(6-4-2-1-3-5-6)16-8-10(14)18-12(15)19-11(8)17-9/h1-5H,(H6,13,14,15,17,18,19)

$$$$
1062
  Marvin  11101114192D          

 17 17  0  0  0  0            999 V2000
   -0.7145   -3.7125    0.0000 C   0  0  0  0  0  0  0  0  0  0  0  0
   -0.7145   -2.8875    0.0000 O   0  0  0  0  0  0  0  0  0  0  0  0
   -1.4289   -2.4750    0.0000 C   0  0  0  0  0  0  0  0  0  0  0  0
   -2.1434   -2.8875    0.0000 C   0  0  0  0  0  0  0  0  0  0  0  0
   -2.8579   -2.4750    0.0000 C   0  0  0  0  0  0  0  0  0  0  0  0
   -2.8579   -1.6500    0.0000 C   0  0  0  0  0  0  0  0  0  0  0  0
   -2.1434   -1.2375    0.0000 C   0  0  0  0  0  0  0  0  0  0  0  0
   -1.4289   -1.6500    0.0000 C   0  0  0  0  0  0  0  0  0  0  0  0
   -0.7145   -1.2375    0.0000 O   0  0  0  0  0  0  0  0  0  0  0  0
    0.0000   -1.6500    0.0000 C   0  0  0  0  0  0  0  0  0  0  0  0
    0.7145   -1.2375    0.0000 C   0  0  0  0  0  0  0  0  0  0  0  0
    0.7145   -0.4125    0.0000 O   0  0  0  0  0  0  0  0  0  0  0  0
    1.4289   -1.6500    0.0000 C   0  0  0  0  0  0  0  0  0  0  0  0
    2.1434   -1.2375    0.0000 O   0  0  0  0  0  0  0  0  0  0  0  0
    2.8579   -1.6500    0.0000 C   0  0  0  0  0  0  0  0  0  0  0  0
    3.5724   -1.2375    0.0000 O   0  0  0  0  0  0  0  0  0  0  0  0
    2.8579   -2.4750    0.0000 N   0  0  0  0  0  0  0  0  0  0  0  0
  1  2  1  0  0  0  0
  2  3  1  0  0  0  0
  3  4  4  0  0  0  0
  4  5  4  0  0  0  0
  5  6  4  0  0  0  0
  6  7  4  0  0  0  0
  7  8  4  0  0  0  0
  3  8  4  0  0  0  0
  8  9  1  0  0  0  0
  9 10  1  0  0  0  0
 10 11  1  0  0  0  0
 11 12  1  0  0  0  0
 11 13  1  0  0  0  0
 13 14  1  0  0  0  0
 14 15  1  0  0  0  0
 15 16  2  0  0  0  0
 15 17  1  0  0  0  0
M  END

> <ChembankId>
1062

> <SMILES>
COc1ccccc1OCC(O)COC(=O)N

> <InChI>
1/C11H15NO5/c1-15-9-4-2-3-5-10(9)16-6-8(13)7-17-11(12)14/h2-5,8,13H,6-7H2,1H3,(H2,12,14)

$$$$
1063
  Marvin  11101114192D          

 22 23  0  0  0  0            999 V2000
    4.2868   -4.9500    0.0000 C   0  0  0  0  0  0  0  0  0  0  0  0
    4.2868   -4.1250    0.0000 C   0  0  0  0  0  0  0  0  0  0  0  0
    3.5724   -3.7125    0.0000 C   0  0  0  0  0  0  0  0  0  0  0  0
    2.8579   -4.1250    0.0000 N   0  0  0  0  0  0  0  0  0  0  0  0
    2.1434   -3.7125    0.0000 C   0  0  0  0  0  0  0  0  0  0  0  0
    1.4289   -4.1250    0.0000 C   0  0  0  0  0  0  0  0  0  0  0  0
    0.7145   -3.7125    0.0000 C   0  0  0  0  0  0  0  0  0  0  0  0
    0.0000   -4.1250    0.0000 C   0  0  0  0  0  0  0  0  0  0  0  0
   -0.7145   -3.7125    0.0000 C   0  0  0  0  0  0  0  0  0  0  0  0
   -0.7145   -2.8875    0.0000 C   0  0  0  0  0  0  0  0  0  0  0  0
   -1.4289   -2.4750    0.0000 O   0  0  0  0  0  0  0  0  0  0  0  0
    0.0000   -2.4750    0.0000 C   0  0  0  0  0  0  0  0  0  0  0  0
    0.0000   -1.6500    0.0000 O   0  0  0  0  0  0  0  0  0  0  0  0
    0.7145   -2.8875    0.0000 C   0  0  0  0  0  0  0  0  0  0  0  0
    5.0013   -3.7125    0.0000 C   0  0  0  0  0  0  0  0  0  0  0  0
    5.7158   -4.1250    0.0000 C   0  0  0  0  0  0  0  0  0  0  0  0
    6.4302   -3.7125    0.0000 C   0  0  0  0  0  0  0  0  0  0  0  0
    7.1447   -4.1250    0.0000 C   0  0  0  0  0  0  0  0  0  0  0  0
    7.1447   -4.9500    0.0000 C   0  0  0  0  0  0  0  0  0  0  0  0
    6.4302   -5.3625    0.0000 C   0  0  0  0  0  0  0  0  0  0  0  0
    6.4302   -6.1875    0.0000 O   0  0  0  0  0  0  0  0  0  0  0  0
    5.7158   -4.9500    0.0000 C   0  0  0  0  0  0  0  0  0  0  0  0
  1  2  1  0  0  0  0
  2  3  1  0  0  0  0
  3  4  1  0  0  0  0
  4  5  1  0  0  0  0
  5  6  1  0  0  0  0
  6  7  1  0  0  0  0
  7  8  4  0  0  0  0
  8  9  4  0  0  0  0
  9 10  4  0  0  0  0
 10 11  1  0  0  0  0
 10 12  4  0  0  0  0
 12 13  1  0  0  0  0
 12 14  4  0  0  0  0
  7 14  4  0  0  0  0
  2 15  1  0  0  0  0
 15 16  1  0  0  0  0
 16 17  4  0  0  0  0
 17 18  4  0  0  0  0
 18 19  4  0  0  0  0
 19 20  4  0  0  0  0
 20 21  1  0  0  0  0
 20 22  4  0  0  0  0
 16 22  4  0  0  0  0
M  END

> <ChembankId>
1063

> <SMILES>
CC(CNCCc1ccc(O)c(O)c1)Cc2cccc(O)c2

> <InChI>
1/C18H23NO3/c1-13(9-15-3-2-4-16(20)10-15)12-19-8-7-14-5-6-17(21)18(22)11-14/h2-6,10-11,13,19-22H,7-9,12H2,1H3

$$$$
1064
  Marvin  11101114192D          

 16 17  0  0  1  0            999 V2000
   -0.0473   -2.6631    0.0000 O   0  5  0  0  0  0  0  0  0  0  0  0
    0.2076   -1.8785    0.0000 N   0  3  0  0  0  0  0  0  0  0  0  0
   -0.3444   -1.2654    0.0000 O   0  0  0  0  0  0  0  0  0  0  0  0
    1.0146   -1.7070    0.0000 O   0  0  0  0  0  0  0  0  0  0  0  0
    1.2695   -0.9224    0.0000 C   0  0  2  0  0  0  0  0  0  0  0  0
    0.7846   -0.2549    0.0000 C   0  0  0  0  0  0  0  0  0  0  0  0
    1.2695    0.4125    0.0000 O   0  0  0  0  0  0  0  0  0  0  0  0
    2.0542    0.1576    0.0000 C   0  0  2  0  0  0  0  0  0  0  0  0
    2.8388    0.4125    0.0000 C   0  0  2  0  0  0  0  0  0  0  0  0
    3.3237   -0.2549    0.0000 C   0  0  0  0  0  0  0  0  0  0  0  0
    2.8388   -0.9224    0.0000 O   0  0  0  0  0  0  0  0  0  0  0  0
    2.0542   -0.6674    0.0000 C   0  0  2  0  0  0  0  0  0  0  0  0
    3.0937    1.1971    0.0000 O   0  0  0  0  0  0  0  0  0  0  0  0
    3.9007    1.3686    0.0000 N   0  3  0  0  0  0  0  0  0  0  0  0
    4.1556    2.1533    0.0000 O   0  0  0  0  0  0  0  0  0  0  0  0
    4.4527    0.7556    0.0000 O   0  5  0  0  0  0  0  0  0  0  0  0
  1  2  1  0  0  0  0
  2  3  2  0  0  0  0
  2  4  1  0  0  0  0
  5  4  1  6  0  0  0
  5  6  1  0  0  0  0
  6  7  1  0  0  0  0
  8  7  1  6  0  0  0
  8  9  1  0  0  0  0
  9 10  1  0  0  0  0
 10 11  1  0  0  0  0
 12 11  1  6  0  0  0
  5 12  1  0  0  0  0
  8 12  1  0  0  0  0
  9 13  1  1  0  0  0
 13 14  1  0  0  0  0
 14 15  2  0  0  0  0
 14 16  1  0  0  0  0
M  CHG  4   1  -1   2   1  14   1  16  -1
M  END

> <ChembankId>
1064

> <SMILES>
[O-][N+](=O)O[C@@H]1CO[C@@H]2[C@H](CO[C@H]12)O[N+](=O)[O-]

> <InChI>
1/C6H8N2O8/c9-7(10)15-3-1-13-6-4(16-8(11)12)2-14-5(3)6/h3-6H,1-2H2

$$$$
1065
  Marvin  11101114192D          

 25 27  0  0  0  0            999 V2000
    1.4289   -1.6500    0.0000 C   0  0  0  0  0  0  0  0  0  0  0  0
    1.4289   -2.4750    0.0000 N   0  0  0  0  0  0  0  0  0  0  0  0
    2.1434   -2.8875    0.0000 C   0  0  0  0  0  0  0  0  0  0  0  0
    2.8579   -2.4750    0.0000 C   0  0  0  0  0  0  0  0  0  0  0  0
    3.5724   -2.8875    0.0000 C   0  0  0  0  0  0  0  0  0  0  0  0
    3.5724   -3.7125    0.0000 O   0  0  0  0  0  0  0  0  0  0  0  0
    4.2868   -2.4750    0.0000 C   0  0  0  0  0  0  0  0  0  0  0  0
    4.2868   -1.6500    0.0000 C   0  0  0  0  0  0  0  0  0  0  0  0
    5.0013   -1.2375    0.0000 C   0  0  0  0  0  0  0  0  0  0  0  0
    5.7158   -1.6500    0.0000 C   0  0  0  0  0  0  0  0  0  0  0  0
    5.7158   -2.4750    0.0000 C   0  0  0  0  0  0  0  0  0  0  0  0
    5.0013   -2.8875    0.0000 C   0  0  0  0  0  0  0  0  0  0  0  0
    2.1434   -3.7125    0.0000 C   0  0  0  0  0  0  0  0  0  0  0  0
    1.4289   -4.1250    0.0000 C   0  0  0  0  0  0  0  0  0  0  0  0
    0.7145   -3.7125    0.0000 C   0  0  0  0  0  0  0  0  0  0  0  0
    0.7145   -2.8875    0.0000 C   0  0  0  0  0  0  0  0  0  0  0  0
    0.0000   -2.4750    0.0000 C   0  0  0  0  0  0  0  0  0  0  0  0
   -0.7145   -2.8875    0.0000 C   0  0  0  0  0  0  0  0  0  0  0  0
   -0.7145   -3.7125    0.0000 O   0  0  0  0  0  0  0  0  0  0  0  0
   -1.4289   -2.4750    0.0000 C   0  0  0  0  0  0  0  0  0  0  0  0
   -2.1434   -2.8875    0.0000 C   0  0  0  0  0  0  0  0  0  0  0  0
   -2.8579   -2.4750    0.0000 C   0  0  0  0  0  0  0  0  0  0  0  0
   -2.8579   -1.6500    0.0000 C   0  0  0  0  0  0  0  0  0  0  0  0
   -2.1434   -1.2375    0.0000 C   0  0  0  0  0  0  0  0  0  0  0  0
   -1.4289   -1.6500    0.0000 C   0  0  0  0  0  0  0  0  0  0  0  0
  1  2  1  0  0  0  0
  2  3  1  0  0  0  0
  3  4  1  0  0  0  0
  4  5  1  0  0  0  0
  5  6  1  0  0  0  0
  5  7  1  0  0  0  0
  7  8  4  0  0  0  0
  8  9  4  0  0  0  0
  9 10  4  0  0  0  0
 10 11  4  0  0  0  0
 11 12  4  0  0  0  0
  7 12  4  0  0  0  0
  3 13  1  0  0  0  0
 13 14  1  0  0  0  0
 14 15  1  0  0  0  0
 15 16  1  0  0  0  0
  2 16  1  0  0  0  0
 16 17  1  0  0  0  0
 17 18  1  0  0  0  0
 18 19  2  0  0  0  0
 18 20  1  0  0  0  0
 20 21  4  0  0  0  0
 21 22  4  0  0  0  0
 22 23  4  0  0  0  0
 23 24  4  0  0  0  0
 24 25  4  0  0  0  0
 20 25  4  0  0  0  0
M  END

> <ChembankId>
1065

> <SMILES>
CN1C(CC(O)c2ccccc2)CCCC1CC(=O)c3ccccc3

> <InChI>
1/C22H27NO2/c1-23-19(15-21(24)17-9-4-2-5-10-17)13-8-14-20(23)16-22(25)18-11-6-3-7-12-18/h2-7,9-12,19-21,24H,8,13-16H2,1H3

$$$$
1067
  Marvin  11101114192D          

 30 32  0  0  1  0            999 V2000
   -1.0164   -3.7934    0.0000 C   0  0  0  0  0  0  0  0  0  0  0  0
   -0.3020   -3.3809    0.0000 O   0  0  0  0  0  0  0  0  0  0  0  0
    0.4125   -3.7934    0.0000 C   0  0  2  0  0  0  0  0  0  0  0  0
    0.8250   -3.0789    0.0000 N   0  0  0  0  0  0  0  0  0  0  0  0
    0.4125   -2.3645    0.0000 C   0  0  0  0  0  0  0  0  0  0  0  0
   -0.4125   -2.3645    0.0000 O   0  0  0  0  0  0  0  0  0  0  0  0
    0.8250   -1.6500    0.0000 C   0  0  0  0  0  0  0  0  0  0  0  0
    1.6500   -1.6500    0.0000 S   0  0  0  0  0  0  0  0  0  0  0  0
    2.0625   -2.3645    0.0000 C   0  0  0  0  0  0  0  0  0  0  0  0
    2.8875   -2.3645    0.0000 C   0  0  0  0  0  0  0  0  0  0  0  0
    3.7125   -2.3645    0.0000 N   0  0  0  0  0  0  0  0  0  0  0  0
    1.1270   -4.2059    0.0000 C   0  0  0  0  0  0  0  0  0  0  0  0
    1.9520   -4.2059    0.0000 S   0  0  0  0  0  0  0  0  0  0  0  0
    2.3645   -4.9204    0.0000 C   0  0  0  0  0  0  0  0  0  0  0  0
    1.9520   -5.6349    0.0000 C   0  0  0  0  0  0  0  0  0  0  0  0
    1.1270   -5.6349    0.0000 C   0  0  0  0  0  0  0  0  0  0  0  0
    0.7145   -4.9204    0.0000 N   0  0  0  0  0  0  0  0  0  0  0  0
    0.0000   -4.5079    0.0000 C   0  0  0  0  0  0  0  0  0  0  0  0
   -0.7969   -4.7214    0.0000 O   0  0  0  0  0  0  0  0  0  0  0  0
    0.7145   -6.3493    0.0000 C   0  0  0  0  0  0  0  0  0  0  0  0
   -0.1105   -6.3493    0.0000 O   0  0  0  0  0  0  0  0  0  0  0  0
    1.1270   -7.0638    0.0000 O   0  0  0  0  0  0  0  0  0  0  0  0
    2.3645   -6.3493    0.0000 C   0  0  0  0  0  0  0  0  0  0  0  0
    3.1895   -6.3493    0.0000 S   0  0  0  0  0  0  0  0  0  0  0  0
    3.6020   -5.6349    0.0000 C   0  0  0  0  0  0  0  0  0  0  0  0
    3.2664   -4.8812    0.0000 N   0  0  0  0  0  0  0  0  0  0  0  0
    3.8795   -4.3291    0.0000 N   0  0  0  0  0  0  0  0  0  0  0  0
    4.5940   -4.7416    0.0000 N   0  0  0  0  0  0  0  0  0  0  0  0
    4.4225   -5.5486    0.0000 N   0  0  0  0  0  0  0  0  0  0  0  0
    4.9745   -6.1617    0.0000 C   0  0  0  0  0  0  0  0  0  0  0  0
  1  2  1  0  0  0  0
  3  2  1  6  0  0  0
  3  4  1  1  0  0  0
  4  5  1  0  0  0  0
  5  6  2  0  0  0  0
  5  7  1  0  0  0  0
  7  8  1  0  0  0  0
  8  9  1  0  0  0  0
  9 10  1  0  0  0  0
 10 11  3  0  0  0  0
  3 12  1  0  0  0  0
 12 13  1  0  0  0  0
 13 14  1  0  0  0  0
 14 15  1  0  0  0  0
 15 16  2  0  0  0  0
 16 17  1  0  0  0  0
 12 17  1  0  0  0  0
 17 18  1  0  0  0  0
  3 18  1  0  0  0  0
 18 19  2  0  0  0  0
 16 20  1  0  0  0  0
 20 21  2  0  0  0  0
 20 22  1  0  0  0  0
 15 23  1  0  0  0  0
 23 24  1  0  0  0  0
 24 25  1  0  0  0  0
 25 26  4  0  0  0  0
 26 27  4  0  0  0  0
 27 28  4  0  0  0  0
 28 29  4  0  0  0  0
 25 29  4  0  0  0  0
 29 30  1  0  0  0  0
M  END

> <ChembankId>
1067

> <SMILES>
CO[C@]1(NC(=O)CSCC#N)C2SCC(=C(N2C1=O)C(=O)O)CSc3nnnn3C

> <InChI>
1/C15H17N7O5S3/c1-21-14(18-19-20-21)30-6-8-5-29-13-15(27-2,17-9(23)7-28-4-3-16)12(26)22(13)10(8)11(24)25/h13H,4-7H2,1-2H3,(H,17,23)(H,24,25)

$$$$
1068
  Marvin  11101114192D          

 21 21  0  0  0  0            999 V2000
   -4.9386   -1.6087    0.0000 C   0  0  0  0  0  0  0  0  0  0  0  0
   -4.9386   -0.7837    0.0000 N   0  0  0  0  0  0  0  0  0  0  0  0
   -4.2241   -0.3712    0.0000 C   0  0  0  0  0  0  0  0  0  0  0  0
   -4.2241    0.4538    0.0000 C   0  0  0  0  0  0  0  0  0  0  0  0
   -4.9386    0.8663    0.0000 N   0  3  0  0  0  0  0  0  0  0  0  0
   -4.9386    1.6913    0.0000 O   0  0  0  0  0  0  0  0  0  0  0  0
   -5.6531    0.4538    0.0000 O   0  5  0  0  0  0  0  0  0  0  0  0
   -3.5097   -0.7837    0.0000 N   0  0  0  0  0  0  0  0  0  0  0  0
   -2.7952   -0.3712    0.0000 C   0  0  0  0  0  0  0  0  0  0  0  0
   -2.0807   -0.7837    0.0000 C   0  0  0  0  0  0  0  0  0  0  0  0
   -1.3663   -0.3712    0.0000 S   0  0  0  0  0  0  0  0  0  0  0  0
   -0.6518   -0.7837    0.0000 C   0  0  0  0  0  0  0  0  0  0  0  0
    0.0627   -0.3712    0.0000 C   0  0  0  0  0  0  0  0  0  0  0  0
    0.1489    0.4493    0.0000 C   0  0  0  0  0  0  0  0  0  0  0  0
    0.9559    0.6209    0.0000 C   0  0  0  0  0  0  0  0  0  0  0  0
    1.3684   -0.0936    0.0000 C   0  0  0  0  0  0  0  0  0  0  0  0
    2.1889   -0.1799    0.0000 C   0  0  0  0  0  0  0  0  0  0  0  0
    2.5244   -0.9335    0.0000 N   0  0  0  0  0  0  0  0  0  0  0  0
    3.3449   -1.0198    0.0000 C   0  0  0  0  0  0  0  0  0  0  0  0
    2.0395   -1.6010    0.0000 C   0  0  0  0  0  0  0  0  0  0  0  0
    0.8164   -0.7067    0.0000 O   0  0  0  0  0  0  0  0  0  0  0  0
  1  2  1  0  0  0  0
  2  3  1  0  0  0  0
  3  4  2  0  0  0  0
  4  5  1  0  0  0  0
  5  6  2  0  0  0  0
  5  7  1  0  0  0  0
  3  8  1  0  0  0  0
  8  9  1  0  0  0  0
  9 10  1  0  0  0  0
 10 11  1  0  0  0  0
 11 12  1  0  0  0  0
 12 13  1  0  0  0  0
 13 14  4  0  0  0  0
 14 15  4  0  0  0  0
 15 16  4  0  0  0  0
 16 17  1  0  0  0  0
 17 18  1  0  0  0  0
 18 19  1  0  0  0  0
 18 20  1  0  0  0  0
 16 21  4  0  0  0  0
 13 21  4  0  0  0  0
M  CHG  2   5   1   7  -1
M  END

> <ChembankId>
1068

> <SMILES>
CN/C(=C\[N+](=O)[O-])/NCCSCc1ccc(CN(C)C)o1

> <InChI>
1/C13H22N4O3S/c1-14-13(9-17(18)19)15-6-7-21-10-12-5-4-11(20-12)8-16(2)3/h4-5,9,14-15H,6-8,10H2,1-3H3

$$$$
1069
  Marvin  11101114192D          

 22 25  0  0  1  0            999 V2000
   -3.7004   -0.9761    0.0000 C   0  0  0  0  0  0  0  0  0  0  0  0
   -2.9865   -1.3894    0.0000 C   0  0  0  0  0  0  0  0  0  0  0  0
   -2.2715   -0.9778    0.0000 C   0  0  0  0  0  0  0  0  0  0  0  0
   -1.5575   -1.3911    0.0000 N   0  0  0  0  0  0  0  0  0  0  0  0
   -1.5585   -2.2161    0.0000 C   0  0  0  0  0  0  0  0  0  0  0  0
   -0.8445   -2.6295    0.0000 C   0  0  2  0  0  0  0  0  0  0  0  0
   -0.8455   -3.4545    0.0000 C   0  0  0  0  0  0  0  0  0  0  0  0
   -0.1315   -3.8679    0.0000 S   0  0  0  0  0  0  0  0  0  0  0  0
   -0.1325   -4.6929    0.0000 C   0  0  0  0  0  0  0  0  0  0  0  0
   -0.1296   -2.2179    0.0000 C   0  0  0  0  0  0  0  0  0  0  0  0
   -0.1286   -1.3929    0.0000 C   0  0  1  0  0  0  0  0  0  0  0  0
   -0.8425   -0.9795    0.0000 C   0  0  1  0  0  0  0  0  0  0  0  0
   -0.8411   -0.1554    0.0000 C   0  0  0  0  0  0  0  0  0  0  0  0
   -0.1286    0.2571    0.0000 C   0  0  0  0  0  0  0  0  0  0  0  0
    0.1714    1.1143    0.0000 C   0  0  0  0  0  0  0  0  0  0  0  0
    0.9964    1.1143    0.0000 N   0  0  0  0  0  0  0  0  0  0  0  0
    1.3018    0.2571    0.0000 C   0  0  0  0  0  0  0  0  0  0  0  0
    2.0143   -0.1554    0.0000 C   0  0  0  0  0  0  0  0  0  0  0  0
    2.0143   -0.9804    0.0000 C   0  0  0  0  0  0  0  0  0  0  0  0
    1.3018   -1.3929    0.0000 C   0  0  0  0  0  0  0  0  0  0  0  0
    0.5839   -0.9804    0.0000 C   0  0  0  0  0  0  0  0  0  0  0  0
    0.5839   -0.1554    0.0000 C   0  0  0  0  0  0  0  0  0  0  0  0
  1  2  1  0  0  0  0
  2  3  1  0  0  0  0
  3  4  1  0  0  0  0
  4  5  1  0  0  0  0
  5  6  1  0  0  0  0
  6  7  1  1  0  0  0
  7  8  1  0  0  0  0
  8  9  1  0  0  0  0
  6 10  1  0  0  0  0
 11 10  1  1  0  0  0
 11 12  1  0  0  0  0
 12  4  1  6  0  0  0
 12 13  1  0  0  0  0
 13 14  1  0  0  0  0
 14 15  4  0  0  0  0
 15 16  4  0  0  0  0
 16 17  4  0  0  0  0
 17 18  4  0  0  0  0
 18 19  4  0  0  0  0
 19 20  4  0  0  0  0
 20 21  4  0  0  0  0
 11 21  1  0  0  0  0
 21 22  4  0  0  0  0
 14 22  4  0  0  0  0
 17 22  4  0  0  0  0
M  STY  1   1 DAT
M  SAL   1  1  16
M  SDT   1 MRV_IMPLICIT_H                                        
M  SDD   1     0.0000    0.0000    DR    ALL  0       0  
M  SED   1 IMPL_H1
M  END

> <ChembankId>
1069

> <SMILES>
CCCN1C[C@H](CSC)C[C@H]2[C@H]1Cc3c[nH]c4cccc2c34

> <InChI>
1/C19H26N2S/c1-3-7-21-11-13(12-22-2)8-16-15-5-4-6-17-19(15)14(10-20-17)9-18(16)21/h4-6,10,13,16,18,20H,3,7-9,11-12H2,1-2H3

$$$$
1075
  Marvin  11101114192D          

 21 22  0  0  0  0            999 V2000
    4.2059   -2.1730    0.0000 C   0  0  0  0  0  0  0  0  0  0  0  0
    3.3809   -2.1730    0.0000 C   0  0  0  0  0  0  0  0  0  0  0  0
    2.9684   -2.8875    0.0000 N   0  0  0  0  0  0  0  0  0  0  0  0
    2.1434   -2.8875    0.0000 C   0  0  0  0  0  0  0  0  0  0  0  0
    1.7309   -2.1730    0.0000 C   0  0  0  0  0  0  0  0  0  0  0  0
    0.9059   -2.1730    0.0000 C   0  0  0  0  0  0  0  0  0  0  0  0
    0.4934   -1.4586    0.0000 C   0  0  0  0  0  0  0  0  0  0  0  0
    0.9059   -0.7441    0.0000 N   0  0  0  0  0  0  0  0  0  0  0  0
    1.7309   -0.7441    0.0000 C   0  0  0  0  0  0  0  0  0  0  0  0
    2.1434   -1.4586    0.0000 C   0  0  0  0  0  0  0  0  0  0  0  0
    3.3809   -3.6020    0.0000 C   0  0  0  0  0  0  0  0  0  0  0  0
    2.9684   -4.3164    0.0000 O   0  0  0  0  0  0  0  0  0  0  0  0
    4.2059   -3.6020    0.0000 C   0  0  0  0  0  0  0  0  0  0  0  0
    4.6184   -2.8875    0.0000 C   0  0  0  0  0  0  0  0  0  0  0  0
    5.4434   -2.8875    0.0000 O   0  0  0  0  0  0  0  0  0  0  0  0
    4.6184   -4.3164    0.0000 C   0  0  0  0  0  0  0  0  0  0  0  0
    5.4434   -4.3164    0.0000 C   0  0  0  0  0  0  0  0  0  0  0  0
    5.8559   -5.0309    0.0000 C   0  0  0  0  0  0  0  0  0  0  0  0
    5.4434   -5.7454    0.0000 C   0  0  0  0  0  0  0  0  0  0  0  0
    4.6184   -5.7454    0.0000 C   0  0  0  0  0  0  0  0  0  0  0  0
    4.2059   -5.0309    0.0000 C   0  0  0  0  0  0  0  0  0  0  0  0
  1  2  1  0  0  0  0
  2  3  1  0  0  0  0
  3  4  1  0  0  0  0
  4  5  1  0  0  0  0
  5  6  4  0  0  0  0
  6  7  4  0  0  0  0
  7  8  4  0  0  0  0
  8  9  4  0  0  0  0
  9 10  4  0  0  0  0
  5 10  4  0  0  0  0
  3 11  1  0  0  0  0
 11 12  2  0  0  0  0
 11 13  1  0  0  0  0
 13 14  1  0  0  0  0
 14 15  1  0  0  0  0
 13 16  1  0  0  0  0
 16 17  4  0  0  0  0
 17 18  4  0  0  0  0
 18 19  4  0  0  0  0
 19 20  4  0  0  0  0
 20 21  4  0  0  0  0
 16 21  4  0  0  0  0
M  END

> <ChembankId>
1075

> <SMILES>
CCN(Cc1ccncc1)C(=O)C(CO)c2ccccc2

> <InChI>
1/C17H20N2O2/c1-2-19(12-14-8-10-18-11-9-14)17(21)16(13-20)15-6-4-3-5-7-15/h3-11,16,20H,2,12-13H2,1H3

$$$$
1079
  Marvin  11101114192D          

 14 14  0  0  1  0            999 V2000
    2.8579    0.8250    0.0000 N   0  0  0  0  0  0  0  0  0  0  0  0
    2.8579   -0.0000    0.0000 C   0  0  1  0  0  0  0  0  0  0  0  0
    2.1434   -0.4125    0.0000 C   0  0  0  0  0  0  0  0  0  0  0  0
    1.4289   -0.0000    0.0000 C   0  0  0  0  0  0  0  0  0  0  0  0
    0.7145   -0.4125    0.0000 C   0  0  0  0  0  0  0  0  0  0  0  0
    0.0000   -0.0000    0.0000 C   0  0  0  0  0  0  0  0  0  0  0  0
    0.0000    0.8250    0.0000 C   0  0  0  0  0  0  0  0  0  0  0  0
   -0.7145    1.2375    0.0000 O   0  0  0  0  0  0  0  0  0  0  0  0
    0.7145    1.2375    0.0000 C   0  0  0  0  0  0  0  0  0  0  0  0
    0.7145    2.0625    0.0000 O   0  0  0  0  0  0  0  0  0  0  0  0
    1.4289    0.8250    0.0000 C   0  0  0  0  0  0  0  0  0  0  0  0
    3.5724   -0.4125    0.0000 C   0  0  0  0  0  0  0  0  0  0  0  0
    4.2868   -0.0000    0.0000 O   0  0  0  0  0  0  0  0  0  0  0  0
    3.5724   -1.2375    0.0000 O   0  0  0  0  0  0  0  0  0  0  0  0
  2  1  1  6  0  0  0
  2  3  1  0  0  0  0
  3  4  1  0  0  0  0
  4  5  4  0  0  0  0
  5  6  4  0  0  0  0
  6  7  4  0  0  0  0
  7  8  1  0  0  0  0
  7  9  4  0  0  0  0
  9 10  1  0  0  0  0
  9 11  4  0  0  0  0
  4 11  4  0  0  0  0
  2 12  1  0  0  0  0
 12 13  2  0  0  0  0
 12 14  1  0  0  0  0
M  END

> <ChembankId>
1079

> <SMILES>
N[C@@H](Cc1ccc(O)c(O)c1)C(=O)O

> <InChI>
1/C9H11NO4/c10-6(9(13)14)3-5-1-2-7(11)8(12)4-5/h1-2,4,6,11-12H,3,10H2,(H,13,14)

$$$$
1081
  Marvin  11101114192D          

 15 16  0  0  0  0            999 V2000
    0.7145   -0.4125    0.0000 C   0  0  0  0  0  0  0  0  0  0  0  0
    0.7145   -1.2375    0.0000 C   0  0  0  0  0  0  0  0  0  0  0  0
    1.3819   -1.7224    0.0000 C   0  0  0  0  0  0  0  0  0  0  0  0
    2.1665   -1.4675    0.0000 N   0  0  0  0  0  0  0  0  0  0  0  0
    1.1270   -2.5070    0.0000 C   0  0  0  0  0  0  0  0  0  0  0  0
    1.6119   -3.1745    0.0000 O   0  0  0  0  0  0  0  0  0  0  0  0
    0.3020   -2.5070    0.0000 N   0  0  0  0  0  0  0  0  0  0  0  0
   -0.1830   -3.1745    0.0000 C   0  0  0  0  0  0  0  0  0  0  0  0
    0.1526   -3.9282    0.0000 C   0  0  0  0  0  0  0  0  0  0  0  0
   -0.3323   -4.5956    0.0000 C   0  0  0  0  0  0  0  0  0  0  0  0
   -1.1528   -4.5094    0.0000 C   0  0  0  0  0  0  0  0  0  0  0  0
   -1.4884   -3.7557    0.0000 C   0  0  0  0  0  0  0  0  0  0  0  0
   -1.0034   -3.0882    0.0000 C   0  0  0  0  0  0  0  0  0  0  0  0
    0.0470   -1.7224    0.0000 N   0  0  0  0  0  0  0  0  0  0  0  0
   -0.7376   -1.4675    0.0000 C   0  0  0  0  0  0  0  0  0  0  0  0
  1  2  1  0  0  0  0
  2  3  4  0  0  0  0
  3  4  1  0  0  0  0
  3  5  4  0  0  0  0
  5  6  2  0  0  0  0
  5  7  4  0  0  0  0
  7  8  1  0  0  0  0
  8  9  4  0  0  0  0
  9 10  4  0  0  0  0
 10 11  4  0  0  0  0
 11 12  4  0  0  0  0
 12 13  4  0  0  0  0
  8 13  4  0  0  0  0
  7 14  4  0  0  0  0
  2 14  4  0  0  0  0
 14 15  1  0  0  0  0
M  END

> <ChembankId>
1081

> <SMILES>
Cc1c(N)c(=O)n(c2ccccc2)n1C

> <InChI>
1/C11H13N3O/c1-8-10(12)11(15)14(13(8)2)9-6-4-3-5-7-9/h3-7H,12H2,1-2H3

$$$$
1083
  Marvin  11101114192D          

 16 18  0  0  0  0            999 V2000
    1.4289   -2.4750    0.0000 C   0  0  0  0  0  0  0  0  0  0  0  0
    0.7145   -2.8875    0.0000 C   0  0  0  0  0  0  0  0  0  0  0  0
    0.6282   -3.7080    0.0000 N   0  0  0  0  0  0  0  0  0  0  0  0
   -0.1787   -3.8795    0.0000 C   0  0  0  0  0  0  0  0  0  0  0  0
   -0.5912   -3.1650    0.0000 C   0  0  0  0  0  0  0  0  0  0  0  0
   -0.0392   -2.5519    0.0000 N   0  0  0  0  0  0  0  0  0  0  0  0
    1.4289   -1.6500    0.0000 C   0  0  0  0  0  0  0  0  0  0  0  0
    0.7145   -1.2375    0.0000 C   0  0  0  0  0  0  0  0  0  0  0  0
    0.7145   -0.4125    0.0000 C   0  0  0  0  0  0  0  0  0  0  0  0
    1.4289    0.0000    0.0000 C   0  0  0  0  0  0  0  0  0  0  0  0
    2.1434   -0.4125    0.0000 C   0  0  0  0  0  0  0  0  0  0  0  0
    2.8579    0.0000    0.0000 C   0  0  0  0  0  0  0  0  0  0  0  0
    3.5724   -0.4125    0.0000 C   0  0  0  0  0  0  0  0  0  0  0  0
    3.5724   -1.2375    0.0000 C   0  0  0  0  0  0  0  0  0  0  0  0
    2.8579   -1.6500    0.0000 C   0  0  0  0  0  0  0  0  0  0  0  0
    2.1434   -1.2375    0.0000 C   0  0  0  0  0  0  0  0  0  0  0  0
  1  2  1  0  0  0  0
  2  3  2  0  0  0  0
  3  4  1  0  0  0  0
  4  5  1  0  0  0  0
  5  6  1  0  0  0  0
  2  6  1  0  0  0  0
  1  7  1  0  0  0  0
  7  8  4  0  0  0  0
  8  9  4  0  0  0  0
  9 10  4  0  0  0  0
 10 11  4  0  0  0  0
 11 12  4  0  0  0  0
 12 13  4  0  0  0  0
 13 14  4  0  0  0  0
 14 15  4  0  0  0  0
 15 16  4  0  0  0  0
  7 16  4  0  0  0  0
 11 16  4  0  0  0  0
M  END

> <ChembankId>
1083

> <SMILES>
C(C1=NCCN1)c2cccc3ccccc23

> <InChI>
1/C14H14N2/c1-2-7-13-11(4-1)5-3-6-12(13)10-14-15-8-9-16-14/h1-7H,8-10H2,(H,15,16)

$$$$
1086
  Marvin  11101114192D          

 19 19  0  0  0  0            999 V2000
    4.2868   -0.0000    0.0000 C   0  0  0  0  0  0  0  0  0  0  0  0
    3.5724   -0.4125    0.0000 C   0  0  0  0  0  0  0  0  0  0  0  0
    3.5724   -1.2375    0.0000 C   0  0  0  0  0  0  0  0  0  0  0  0
    2.8579   -0.0000    0.0000 C   0  0  0  0  0  0  0  0  0  0  0  0
    2.8579    0.8250    0.0000 O   0  0  0  0  0  0  0  0  0  0  0  0
    2.1434   -0.4125    0.0000 N   0  0  0  0  0  0  0  0  0  0  0  0
    1.4289   -0.0000    0.0000 C   0  0  0  0  0  0  0  0  0  0  0  0
    0.7145   -0.4125    0.0000 C   0  0  0  0  0  0  0  0  0  0  0  0
    0.0000   -0.0000    0.0000 C   0  0  0  0  0  0  0  0  0  0  0  0
    0.0000    0.8250    0.0000 C   0  0  0  0  0  0  0  0  0  0  0  0
   -0.7145    1.2375    0.0000 N   0  3  0  0  0  0  0  0  0  0  0  0
   -1.4289    0.8250    0.0000 O   0  0  0  0  0  0  0  0  0  0  0  0
   -0.7145    2.0625    0.0000 O   0  5  0  0  0  0  0  0  0  0  0  0
    0.7145    1.2375    0.0000 C   0  0  0  0  0  0  0  0  0  0  0  0
    1.4289    0.8250    0.0000 C   0  0  0  0  0  0  0  0  0  0  0  0
    0.7145    2.0625    0.0000 C   0  0  0  0  0  0  0  0  0  0  0  0
    0.7145    2.8875    0.0000 F   0  0  0  0  0  0  0  0  0  0  0  0
    1.5395    2.0625    0.0000 F   0  0  0  0  0  0  0  0  0  0  0  0
   -0.1105    2.0625    0.0000 F   0  0  0  0  0  0  0  0  0  0  0  0
  1  2  1  0  0  0  0
  2  3  1  0  0  0  0
  2  4  1  0  0  0  0
  4  5  2  0  0  0  0
  4  6  1  0  0  0  0
  6  7  1  0  0  0  0
  7  8  4  0  0  0  0
  8  9  4  0  0  0  0
  9 10  4  0  0  0  0
 10 11  1  0  0  0  0
 11 12  2  0  0  0  0
 11 13  1  0  0  0  0
 10 14  4  0  0  0  0
 14 15  4  0  0  0  0
  7 15  4  0  0  0  0
 14 16  1  0  0  0  0
 16 17  1  0  0  0  0
 16 18  1  0  0  0  0
 16 19  1  0  0  0  0
M  CHG  2  11   1  13  -1
M  END

> <ChembankId>
1086

> <SMILES>
CC(C)C(=O)Nc1ccc([N+](=O)[O-])c(c1)C(F)(F)F

> <InChI>
1/C11H11F3N2O3/c1-6(2)10(17)15-7-3-4-9(16(18)19)8(5-7)11(12,13)14/h3-6H,1-2H3,(H,15,17)

$$$$
1088
  Marvin  11101114192D          

 29 31  0  0  0  0            999 V2000
   -2.9684   -3.9336    0.0000 C   0  0  0  0  0  0  0  0  0  0  0  0
   -2.1434   -3.9336    0.0000 C   0  0  0  0  0  0  0  0  0  0  0  0
   -1.7309   -4.6480    0.0000 N   0  0  0  0  0  0  0  0  0  0  0  0
   -2.1434   -5.3625    0.0000 C   0  0  0  0  0  0  0  0  0  0  0  0
   -2.9684   -5.3625    0.0000 C   0  0  0  0  0  0  0  0  0  0  0  0
   -0.9059   -4.6480    0.0000 C   0  0  0  0  0  0  0  0  0  0  0  0
   -0.4934   -5.3625    0.0000 C   0  0  0  0  0  0  0  0  0  0  0  0
    0.3316   -5.3625    0.0000 O   0  0  0  0  0  0  0  0  0  0  0  0
    0.7441   -6.0770    0.0000 C   0  0  0  0  0  0  0  0  0  0  0  0
    1.5691   -6.0770    0.0000 C   0  0  0  0  0  0  0  0  0  0  0  0
    1.9816   -6.7914    0.0000 C   0  0  0  0  0  0  0  0  0  0  0  0
    1.5691   -7.5059    0.0000 C   0  0  0  0  0  0  0  0  0  0  0  0
    0.7441   -7.5059    0.0000 C   0  0  0  0  0  0  0  0  0  0  0  0
    0.3316   -6.7914    0.0000 C   0  0  0  0  0  0  0  0  0  0  0  0
    1.9816   -8.2204    0.0000 C   0  0  0  0  0  0  0  0  0  0  0  0
    1.5691   -8.9349    0.0000 C   0  0  0  0  0  0  0  0  0  0  0  0
    0.7441   -8.9349    0.0000 Cl  0  0  0  0  0  0  0  0  0  0  0  0
    1.9816   -9.6493    0.0000 C   0  0  0  0  0  0  0  0  0  0  0  0
    2.8066   -9.6493    0.0000 C   0  0  0  0  0  0  0  0  0  0  0  0
    3.2191  -10.3638    0.0000 C   0  0  0  0  0  0  0  0  0  0  0  0
    2.8066  -11.0783    0.0000 C   0  0  0  0  0  0  0  0  0  0  0  0
    1.9816  -11.0783    0.0000 C   0  0  0  0  0  0  0  0  0  0  0  0
    1.5691  -10.3638    0.0000 C   0  0  0  0  0  0  0  0  0  0  0  0
    2.8066   -8.2204    0.0000 C   0  0  0  0  0  0  0  0  0  0  0  0
    3.2191   -7.5059    0.0000 C   0  0  0  0  0  0  0  0  0  0  0  0
    4.0441   -7.5059    0.0000 C   0  0  0  0  0  0  0  0  0  0  0  0
    4.4566   -8.2204    0.0000 C   0  0  0  0  0  0  0  0  0  0  0  0
    4.0441   -8.9349    0.0000 C   0  0  0  0  0  0  0  0  0  0  0  0
    3.2191   -8.9349    0.0000 C   0  0  0  0  0  0  0  0  0  0  0  0
  1  2  1  0  0  0  0
  2  3  1  0  0  0  0
  3  4  1  0  0  0  0
  4  5  1  0  0  0  0
  3  6  1  0  0  0  0
  6  7  1  0  0  0  0
  7  8  1  0  0  0  0
  8  9  1  0  0  0  0
  9 10  4  0  0  0  0
 10 11  4  0  0  0  0
 11 12  4  0  0  0  0
 12 13  4  0  0  0  0
 13 14  4  0  0  0  0
  9 14  4  0  0  0  0
 12 15  1  0  0  0  0
 15 16  2  0  0  0  0
 16 17  1  0  0  0  0
 16 18  1  0  0  0  0
 18 19  4  0  0  0  0
 19 20  4  0  0  0  0
 20 21  4  0  0  0  0
 21 22  4  0  0  0  0
 22 23  4  0  0  0  0
 18 23  4  0  0  0  0
 15 24  1  0  0  0  0
 24 25  4  0  0  0  0
 25 26  4  0  0  0  0
 26 27  4  0  0  0  0
 27 28  4  0  0  0  0
 28 29  4  0  0  0  0
 24 29  4  0  0  0  0
M  END

> <ChembankId>
1088

> <SMILES>
CCN(CC)CCOc1ccc(cc1)/C(=C(\Cl)/c2ccccc2)/c3ccccc3

> <InChI>
1/C26H28ClNO/c1-3-28(4-2)19-20-29-24-17-15-22(16-18-24)25(21-11-7-5-8-12-21)26(27)23-13-9-6-10-14-23/h5-18H,3-4,19-20H2,1-2H3

$$$$
1090
  Marvin  11101114192D          

 27 28  0  0  1  0            999 V2000
   -1.6703    2.1731    0.0000 C   0  0  0  0  0  0  0  0  0  0  0  0
   -1.3348    1.4194    0.0000 C   0  0  0  0  0  0  0  0  0  0  0  0
   -0.5143    1.3332    0.0000 C   0  0  0  0  0  0  0  0  0  0  0  0
   -0.1787    0.5795    0.0000 C   0  0  2  0  0  0  0  0  0  0  0  0
    0.6282    0.4080    0.0000 C   0  0  0  0  0  0  0  0  0  0  0  0
    0.7145   -0.4125    0.0000 C   0  0  2  0  0  0  0  0  0  0  0  0
   -0.0392   -0.7481    0.0000 N   0  0  0  0  0  0  0  0  0  0  0  0
   -0.2107   -1.5550    0.0000 C   0  0  0  0  0  0  0  0  0  0  0  0
   -0.5912   -0.1350    0.0000 C   0  0  0  0  0  0  0  0  0  0  0  0
    1.4289   -0.8250    0.0000 C   0  0  0  0  0  0  0  0  0  0  0  0
    2.1434   -0.4125    0.0000 O   0  0  0  0  0  0  0  0  0  0  0  0
    1.4289   -1.6500    0.0000 N   0  0  0  0  0  0  0  0  0  0  0  0
    2.1434   -2.0625    0.0000 C   0  0  0  0  0  0  0  0  0  0  0  0
    2.8579   -1.6500    0.0000 C   0  0  0  0  0  0  0  0  0  0  0  0
    2.8579   -0.8250    0.0000 C   0  0  0  0  0  0  0  0  0  0  0  0
    3.5724   -2.0625    0.0000 Cl  0  0  0  0  0  0  0  0  0  0  0  0
    2.1434   -2.8875    0.0000 C   0  0  0  0  0  0  0  0  0  0  0  0
    2.8579   -3.3000    0.0000 O   0  0  0  0  0  0  0  0  0  0  0  0
    2.8579   -4.1250    0.0000 C   0  0  2  0  0  0  0  0  0  0  0  0
    3.5724   -4.5375    0.0000 S   0  0  0  0  0  0  0  0  0  0  0  0
    4.2868   -4.1250    0.0000 C   0  0  0  0  0  0  0  0  0  0  0  0
    2.1434   -4.5375    0.0000 C   0  0  2  0  0  0  0  0  0  0  0  0
    2.1434   -5.3625    0.0000 O   0  0  0  0  0  0  0  0  0  0  0  0
    1.4289   -4.1250    0.0000 C   0  0  1  0  0  0  0  0  0  0  0  0
    0.7145   -4.5375    0.0000 O   0  0  0  0  0  0  0  0  0  0  0  0
    1.4289   -3.3000    0.0000 C   0  0  1  0  0  0  0  0  0  0  0  0
    0.7145   -2.8875    0.0000 O   0  0  0  0  0  0  0  0  0  0  0  0
  1  2  1  0  0  0  0
  2  3  1  0  0  0  0
  4  3  1  6  0  0  0
  4  5  1  0  0  0  0
  5  6  1  0  0  0  0
  6  7  1  0  0  0  0
  7  8  1  0  0  0  0
  7  9  1  0  0  0  0
  4  9  1  0  0  0  0
  6 10  1  1  0  0  0
 10 11  2  0  0  0  0
 10 12  1  0  0  0  0
 12 13  1  0  0  0  0
 13 14  1  0  0  0  0
 14 15  1  0  0  0  0
 14 16  1  0  0  0  0
 13 17  1  0  0  0  0
 17 18  1  0  0  0  0
 18 19  1  0  0  0  0
 19 20  1  6  0  0  0
 20 21  1  0  0  0  0
 19 22  1  0  0  0  0
 22 23  1  6  0  0  0
 22 24  1  0  0  0  0
 24 25  1  1  0  0  0
 24 26  1  0  0  0  0
 17 26  1  0  0  0  0
 26 27  1  1  0  0  0
M  END

> <ChembankId>
1090

> <SMILES>
CCC[C@@H]1C[C@H](N(C)C1)C(=O)NC(C(C)Cl)C2O[C@H](SC)[C@H](O)[C@@H](O)[C@H]2O

> <InChI>
1/C18H33ClN2O5S/c1-5-6-10-7-11(21(3)8-10)17(25)20-12(9(2)19)16-14(23)13(22)15(24)18(26-16)27-4/h9-16,18,22-24H,5-8H2,1-4H3,(H,20,25)

$$$$
1092
  Marvin  11101114192D          

 24 26  0  0  1  0            999 V2000
    2.5600    0.7927    0.0000 C   0  0  0  0  0  0  0  0  0  0  0  0
    1.9469    1.3448    0.0000 C   0  0  0  0  0  0  0  0  0  0  0  0
    2.5600    1.8968    0.0000 C   0  0  0  0  0  0  0  0  0  0  0  0
    1.4620    0.6773    0.0000 S   0  0  0  0  0  0  0  0  0  0  0  0
    0.6773    0.9323    0.0000 C   0  0  2  0  0  0  0  0  0  0  0  0
   -0.1477    0.9323    0.0000 C   0  0  2  0  0  0  0  0  0  0  0  0
   -0.7310    0.3489    0.0000 N   0  0  0  0  0  0  0  0  0  0  0  0
   -1.5279    0.5624    0.0000 C   0  0  0  0  0  0  0  0  0  0  0  0
   -1.7414    1.3593    0.0000 O   0  0  0  0  0  0  0  0  0  0  0  0
   -2.1113   -0.0209    0.0000 C   0  0  2  0  0  0  0  0  0  0  0  0
   -1.8977   -0.8178    0.0000 N   0  0  0  0  0  0  0  0  0  0  0  0
   -2.9082    0.1926    0.0000 C   0  0  0  0  0  0  0  0  0  0  0  0
   -3.4915   -0.3908    0.0000 C   0  0  0  0  0  0  0  0  0  0  0  0
   -4.2884   -0.1772    0.0000 C   0  0  0  0  0  0  0  0  0  0  0  0
   -4.5019    0.6197    0.0000 C   0  0  0  0  0  0  0  0  0  0  0  0
   -3.9186    1.2030    0.0000 C   0  0  0  0  0  0  0  0  0  0  0  0
   -3.1217    0.9895    0.0000 C   0  0  0  0  0  0  0  0  0  0  0  0
   -0.1477    1.7573    0.0000 C   0  0  0  0  0  0  0  0  0  0  0  0
   -0.7310    2.3406    0.0000 O   0  0  0  0  0  0  0  0  0  0  0  0
    0.6773    1.7573    0.0000 N   0  0  0  0  0  0  0  0  0  0  0  0
    1.4620    2.0122    0.0000 C   0  0  1  0  0  0  0  0  0  0  0  0
    1.7169    2.7968    0.0000 C   0  0  0  0  0  0  0  0  0  0  0  0
    1.1649    3.4099    0.0000 O   0  0  0  0  0  0  0  0  0  0  0  0
    2.5239    2.9684    0.0000 O   0  0  0  0  0  0  0  0  0  0  0  0
  1  2  1  0  0  0  0
  2  3  1  0  0  0  0
  2  4  1  0  0  0  0
  4  5  1  0  0  0  0
  5  6  1  0  0  0  0
  6  7  1  6  0  0  0
  7  8  1  0  0  0  0
  8  9  2  0  0  0  0
  8 10  1  0  0  0  0
 10 11  1  6  0  0  0
 10 12  1  0  0  0  0
 12 13  4  0  0  0  0
 13 14  4  0  0  0  0
 14 15  4  0  0  0  0
 15 16  4  0  0  0  0
 16 17  4  0  0  0  0
 12 17  4  0  0  0  0
  6 18  1  0  0  0  0
 18 19  2  0  0  0  0
 18 20  1  0  0  0  0
  5 20  1  6  0  0  0
 20 21  1  0  0  0  0
  2 21  1  0  0  0  0
 21 22  1  1  0  0  0
 22 23  2  0  0  0  0
 22 24  1  0  0  0  0
M  END

> <ChembankId>
1092

> <SMILES>
CC1(C)S[C@@H]2[C@H](NC(=O)[C@H](N)c3ccccc3)C(=O)N2[C@H]1C(=O)O

> <InChI>
1/C16H19N3O4S/c1-16(2)11(15(22)23)19-13(21)10(14(19)24-16)18-12(20)9(17)8-6-4-3-5-7-8/h3-7,9-11,14H,17H2,1-2H3,(H,18,20)(H,22,23)

$$$$
1094
  Marvin  11101114192D          

 19 20  0  0  0  0            999 V2000
    1.4289   -0.8250    0.0000 C   0  0  0  0  0  0  0  0  0  0  0  0
    2.1434   -1.2375    0.0000 O   0  0  0  0  0  0  0  0  0  0  0  0
    2.1434   -2.0625    0.0000 C   0  0  0  0  0  0  0  0  0  0  0  0
    2.8579   -2.4750    0.0000 C   0  0  0  0  0  0  0  0  0  0  0  0
    2.8579   -3.3000    0.0000 N   0  0  0  0  0  0  0  0  0  0  0  0
    2.1434   -3.7125    0.0000 C   0  0  0  0  0  0  0  0  0  0  0  0
    2.1434   -4.5375    0.0000 N   0  0  0  0  0  0  0  0  0  0  0  0
    1.4289   -4.9500    0.0000 S   0  0  0  0  0  0  0  0  0  0  0  0
    1.0164   -4.2355    0.0000 O   0  0  0  0  0  0  0  0  0  0  0  0
    1.8414   -5.6645    0.0000 O   0  0  0  0  0  0  0  0  0  0  0  0
    0.7145   -5.3625    0.0000 C   0  0  0  0  0  0  0  0  0  0  0  0
    0.7145   -6.1875    0.0000 C   0  0  0  0  0  0  0  0  0  0  0  0
   -0.0000   -6.6000    0.0000 C   0  0  0  0  0  0  0  0  0  0  0  0
   -0.7145   -6.1875    0.0000 C   0  0  0  0  0  0  0  0  0  0  0  0
   -1.4289   -6.6000    0.0000 N   0  0  0  0  0  0  0  0  0  0  0  0
   -0.7145   -5.3625    0.0000 C   0  0  0  0  0  0  0  0  0  0  0  0
   -0.0000   -4.9500    0.0000 C   0  0  0  0  0  0  0  0  0  0  0  0
    1.4289   -3.3000    0.0000 N   0  0  0  0  0  0  0  0  0  0  0  0
    1.4289   -2.4750    0.0000 C   0  0  0  0  0  0  0  0  0  0  0  0
  1  2  1  0  0  0  0
  2  3  1  0  0  0  0
  3  4  4  0  0  0  0
  4  5  4  0  0  0  0
  5  6  4  0  0  0  0
  6  7  1  0  0  0  0
  7  8  1  0  0  0  0
  8  9  2  0  0  0  0
  8 10  2  0  0  0  0
  8 11  1  0  0  0  0
 11 12  4  0  0  0  0
 12 13  4  0  0  0  0
 13 14  4  0  0  0  0
 14 15  1  0  0  0  0
 14 16  4  0  0  0  0
 16 17  4  0  0  0  0
 11 17  4  0  0  0  0
  6 18  4  0  0  0  0
 18 19  4  0  0  0  0
  3 19  4  0  0  0  0
M  END

> <ChembankId>
1094

> <SMILES>
COc1cnc(NS(=O)(=O)c2ccc(N)cc2)nc1

> <InChI>
1/C11H12N4O3S/c1-18-9-6-13-11(14-7-9)15-19(16,17)10-4-2-8(12)3-5-10/h2-7H,12H2,1H3,(H,13,14,15)

$$$$
1095
  Marvin  11101114192D          

 18 18  0  0  0  0            999 V2000
   -2.1434   -2.0625    0.0000 N   0  0  0  0  0  0  0  0  0  0  0  0
   -2.1434   -2.8875    0.0000 C   0  0  0  0  0  0  0  0  0  0  0  0
   -2.8579   -3.3000    0.0000 C   0  0  0  0  0  0  0  0  0  0  0  0
   -3.5724   -2.8875    0.0000 O   0  0  0  0  0  0  0  0  0  0  0  0
   -1.4289   -3.3000    0.0000 C   0  0  0  0  0  0  0  0  0  0  0  0
   -1.4289   -4.1250    0.0000 O   0  0  0  0  0  0  0  0  0  0  0  0
   -0.7145   -2.8875    0.0000 N   0  0  0  0  0  0  0  0  0  0  0  0
    0.0000   -3.3000    0.0000 N   0  0  0  0  0  0  0  0  0  0  0  0
    0.7145   -2.8875    0.0000 C   0  0  0  0  0  0  0  0  0  0  0  0
    1.4289   -3.3000    0.0000 C   0  0  0  0  0  0  0  0  0  0  0  0
    2.1434   -2.8875    0.0000 C   0  0  0  0  0  0  0  0  0  0  0  0
    2.8579   -3.3000    0.0000 C   0  0  0  0  0  0  0  0  0  0  0  0
    2.8579   -4.1250    0.0000 C   0  0  0  0  0  0  0  0  0  0  0  0
    3.5724   -4.5375    0.0000 O   0  0  0  0  0  0  0  0  0  0  0  0
    2.1434   -4.5375    0.0000 C   0  0  0  0  0  0  0  0  0  0  0  0
    2.1434   -5.3625    0.0000 O   0  0  0  0  0  0  0  0  0  0  0  0
    1.4289   -4.1250    0.0000 C   0  0  0  0  0  0  0  0  0  0  0  0
    0.7145   -4.5375    0.0000 O   0  0  0  0  0  0  0  0  0  0  0  0
  1  2  1  0  0  0  0
  2  3  1  0  0  0  0
  3  4  1  0  0  0  0
  2  5  1  0  0  0  0
  5  6  2  0  0  0  0
  5  7  1  0  0  0  0
  7  8  1  0  0  0  0
  8  9  1  0  0  0  0
  9 10  1  0  0  0  0
 10 11  4  0  0  0  0
 11 12  4  0  0  0  0
 12 13  4  0  0  0  0
 13 14  1  0  0  0  0
 13 15  4  0  0  0  0
 15 16  1  0  0  0  0
 15 17  4  0  0  0  0
 10 17  4  0  0  0  0
 17 18  1  0  0  0  0
M  END

> <ChembankId>
1095

> <SMILES>
NC(CO)C(=O)NNCc1ccc(O)c(O)c1O

> <InChI>
1/C10H15N3O5/c11-6(4-14)10(18)13-12-3-5-1-2-7(15)9(17)8(5)16/h1-2,6,12,14-17H,3-4,11H2,(H,13,18)

$$$$
1098
  Marvin  11101114192D          

 26 29  0  0  1  0            999 V2000
    3.5330   -3.2587    0.0000 C   0  0  0  0  0  0  0  0  0  0  0  0
    3.8928   -2.5163    0.0000 C   0  0  2  0  0  0  0  0  0  0  0  0
    4.4247   -3.1470    0.0000 C   0  0  0  0  0  0  0  0  0  0  0  0
    5.2368   -3.0018    0.0000 C   0  0  2  0  0  0  0  0  0  0  0  0
    5.7686   -3.6325    0.0000 O   0  0  0  0  0  0  0  0  0  0  0  0
    5.5171   -2.2259    0.0000 C   0  0  0  0  0  0  0  0  0  0  0  0
    4.9853   -1.5952    0.0000 C   0  0  0  0  0  0  0  0  0  0  0  0
    5.2655   -0.8192    0.0000 C   0  0  0  0  0  0  0  0  0  0  0  0
    6.0777   -0.6740    0.0000 C   0  0  0  0  0  0  0  0  0  0  0  0
    6.6095   -1.3047    0.0000 C   0  0  0  0  0  0  0  0  0  0  0  0
    7.4216   -1.1595    0.0000 C   0  0  0  0  0  0  0  0  0  0  0  0
    7.9534   -1.7902    0.0000 C   0  0  0  0  0  0  0  0  0  0  0  0
    8.7655   -1.6450    0.0000 O   0  0  0  0  0  0  0  0  0  0  0  0
    7.6731   -2.5662    0.0000 C   0  0  0  0  0  0  0  0  0  0  0  0
    6.8610   -2.7114    0.0000 C   0  0  0  0  0  0  0  0  0  0  0  0
    6.3292   -2.0807    0.0000 C   0  0  2  0  0  0  0  0  0  0  0  0
    6.0489   -2.8566    0.0000 C   0  0  0  0  0  0  0  0  0  0  0  0
    4.1731   -1.7404    0.0000 C   0  0  0  0  0  0  0  0  0  0  0  0
    3.5218   -1.2340    0.0000 C   0  0  0  0  0  0  0  0  0  0  0  0
    2.8390   -1.6970    0.0000 C   0  0  0  0  0  0  0  0  0  0  0  0
    3.0683   -2.4895    0.0000 C   0  0  1  0  0  0  0  0  0  0  0  0
    2.3074   -2.8084    0.0000 O   0  0  0  0  0  0  0  0  0  0  0  0
    2.9469   -3.3055    0.0000 C   0  0  0  0  0  0  0  0  0  0  0  0
    3.5929   -3.8187    0.0000 O   0  0  0  0  0  0  0  0  0  0  0  0
    2.1795   -3.6084    0.0000 C   0  0  0  0  0  0  0  0  0  0  0  0
    2.0581   -4.4244    0.0000 O   0  0  0  0  0  0  0  0  0  0  0  0
  2  1  1  1  0  0  0
  2  3  1  0  0  0  0
  3  4  1  0  0  0  0
  4  5  1  1  0  0  0
  4  6  1  0  0  0  0
  6  7  1  0  0  0  0
  7  8  1  0  0  0  0
  8  9  1  0  0  0  0
  9 10  1  0  0  0  0
 10 11  2  0  0  0  0
 11 12  1  0  0  0  0
 12 13  2  0  0  0  0
 12 14  1  0  0  0  0
 14 15  1  0  0  0  0
 15 16  1  0  0  0  0
  6 16  1  0  0  0  0
 10 16  1  0  0  0  0
 16 17  1  1  0  0  0
  7 18  1  0  0  0  0
  2 18  1  0  0  0  0
 18 19  1  0  0  0  0
 19 20  1  0  0  0  0
 20 21  1  0  0  0  0
  2 21  1  0  0  0  0
 21 22  1  6  0  0  0
 21 23  1  1  0  0  0
 23 24  2  0  0  0  0
 23 25  1  0  0  0  0
 25 26  1  0  0  0  0
M  END

> <ChembankId>
1098

> <SMILES>
C[C@@]12C[C@H](O)C3C(CCC4=CC(=O)CC[C@]34C)C2CC[C@]1(O)C(=O)CO

> <InChI>
1/C21H30O5/c1-19-7-5-13(23)9-12(19)3-4-14-15-6-8-21(26,17(25)11-22)20(15,2)10-16(24)18(14)19/h9,14-16,18,22,24,26H,3-8,10-11H2,1-2H3

$$$$
1100
  Marvin  11101114192D          

 24 25  0  0  0  0            999 V2000
    2.8579   -4.9500    0.0000 C   0  0  0  0  0  0  0  0  0  0  0  0
    2.8579   -4.1250    0.0000 C   0  0  0  0  0  0  0  0  0  0  0  0
    2.1434   -3.7125    0.0000 C   0  0  0  0  0  0  0  0  0  0  0  0
    1.4289   -4.1250    0.0000 C   0  0  0  0  0  0  0  0  0  0  0  0
    0.7145   -3.7125    0.0000 C   0  0  0  0  0  0  0  0  0  0  0  0
    0.0000   -4.1250    0.0000 C   0  0  0  0  0  0  0  0  0  0  0  0
   -0.7145   -3.7125    0.0000 C   0  0  0  0  0  0  0  0  0  0  0  0
   -0.7145   -2.8875    0.0000 C   0  0  0  0  0  0  0  0  0  0  0  0
    0.0000   -2.4750    0.0000 C   0  0  0  0  0  0  0  0  0  0  0  0
    0.7145   -2.8875    0.0000 C   0  0  0  0  0  0  0  0  0  0  0  0
    3.5724   -3.7125    0.0000 N   0  0  0  0  0  0  0  0  0  0  0  0
    4.2868   -4.1250    0.0000 C   0  0  0  0  0  0  0  0  0  0  0  0
    5.0013   -3.7125    0.0000 C   0  0  0  0  0  0  0  0  0  0  0  0
    5.0013   -2.8875    0.0000 O   0  0  0  0  0  0  0  0  0  0  0  0
    5.7158   -4.1250    0.0000 C   0  0  0  0  0  0  0  0  0  0  0  0
    6.4302   -3.7125    0.0000 C   0  0  0  0  0  0  0  0  0  0  0  0
    7.1447   -4.1250    0.0000 C   0  0  0  0  0  0  0  0  0  0  0  0
    7.1447   -4.9500    0.0000 C   0  0  0  0  0  0  0  0  0  0  0  0
    7.8592   -5.3625    0.0000 O   0  0  0  0  0  0  0  0  0  0  0  0
    6.4302   -5.3625    0.0000 C   0  0  0  0  0  0  0  0  0  0  0  0
    5.7158   -4.9500    0.0000 C   0  0  0  0  0  0  0  0  0  0  0  0
    6.4302   -6.1875    0.0000 C   0  0  0  0  0  0  0  0  0  0  0  0
    5.7158   -6.6000    0.0000 O   0  0  0  0  0  0  0  0  0  0  0  0
    7.1447   -6.6000    0.0000 N   0  0  0  0  0  0  0  0  0  0  0  0
  1  2  1  0  0  0  0
  2  3  1  0  0  0  0
  3  4  1  0  0  0  0
  4  5  1  0  0  0  0
  5  6  4  0  0  0  0
  6  7  4  0  0  0  0
  7  8  4  0  0  0  0
  8  9  4  0  0  0  0
  9 10  4  0  0  0  0
  5 10  4  0  0  0  0
  2 11  1  0  0  0  0
 11 12  1  0  0  0  0
 12 13  1  0  0  0  0
 13 14  1  0  0  0  0
 13 15  1  0  0  0  0
 15 16  4  0  0  0  0
 16 17  4  0  0  0  0
 17 18  4  0  0  0  0
 18 19  1  0  0  0  0
 18 20  4  0  0  0  0
 20 21  4  0  0  0  0
 15 21  4  0  0  0  0
 20 22  1  0  0  0  0
 22 23  2  0  0  0  0
 22 24  1  0  0  0  0
M  END

> <ChembankId>
1100

> <SMILES>
CC(CCc1ccccc1)NCC(O)c2ccc(O)c(c2)C(=O)N

> <InChI>
1/C19H24N2O3/c1-13(7-8-14-5-3-2-4-6-14)21-12-18(23)15-9-10-17(22)16(11-15)19(20)24/h2-6,9-11,13,18,21-23H,7-8,12H2,1H3,(H2,20,24)

$$$$
1101
  Marvin  11101114192D          

 31 35  0  0  1  0            999 V2000
    2.7398   -1.3271    0.0000 C   0  0  0  0  0  0  0  0  0  0  0  0
    2.4893   -2.1132    0.0000 C   0  0  0  0  0  0  0  0  0  0  0  0
    3.0447   -2.7231    0.0000 C   0  0  0  0  0  0  0  0  0  0  0  0
    3.8507   -2.5471    0.0000 C   0  0  0  0  0  0  0  0  0  0  0  0
    4.1820   -1.7915    0.0000 O   0  0  0  0  0  0  0  0  0  0  0  0
    5.0030   -1.8731    0.0000 C   0  0  2  0  0  0  0  0  0  0  0  0
    5.7151   -1.4566    0.0000 C   0  0  0  0  0  0  0  0  0  0  0  0
    6.3313   -2.0052    0.0000 C   0  0  0  0  0  0  0  0  0  0  0  0
    7.1513   -1.9143    0.0000 C   0  0  0  0  0  0  0  0  0  0  0  0
    7.4826   -1.1588    0.0000 C   0  0  0  0  0  0  0  0  0  0  0  0
    8.3026   -1.0679    0.0000 C   0  0  0  0  0  0  0  0  0  0  0  0
    8.7913   -1.7326    0.0000 C   0  0  0  0  0  0  0  0  0  0  0  0
    9.6112   -1.6417    0.0000 C   0  0  0  0  0  0  0  0  0  0  0  0
   10.0999   -2.3064    0.0000 C   0  0  0  0  0  0  0  0  0  0  0  0
   10.9199   -2.2156    0.0000 O   0  0  0  0  0  0  0  0  0  0  0  0
    9.7686   -3.0620    0.0000 C   0  0  0  0  0  0  0  0  0  0  0  0
    8.9486   -3.1529    0.0000 C   0  0  0  0  0  0  0  0  0  0  0  0
    8.4600   -2.4882    0.0000 C   0  0  0  0  0  0  0  0  0  0  0  0
    8.1286   -3.2437    0.0000 C   0  0  0  0  0  0  0  0  0  0  0  0
    7.6400   -2.5790    0.0000 C   0  0  0  0  0  0  0  0  0  0  0  0
    7.3087   -3.3346    0.0000 C   0  0  1  0  0  0  0  0  0  0  0  0
    7.7973   -3.9993    0.0000 O   0  0  0  0  0  0  0  0  0  0  0  0
    6.4887   -3.4254    0.0000 C   0  0  0  0  0  0  0  0  0  0  0  0
    6.0000   -2.7607    0.0000 C   0  0  0  0  0  0  0  0  0  0  0  0
    5.8330   -3.5687    0.0000 C   0  0  0  0  0  0  0  0  0  0  0  0
    5.1791   -2.6791    0.0000 C   0  0  2  0  0  0  0  0  0  0  0  0
    4.4669   -3.0956    0.0000 O   0  0  0  0  0  0  0  0  0  0  0  0
    5.3551   -3.4851    0.0000 C   0  0  0  0  0  0  0  0  0  0  0  0
    6.0253   -3.9663    0.0000 O   0  0  0  0  0  0  0  0  0  0  0  0
    4.7452   -4.0406    0.0000 C   0  0  0  0  0  0  0  0  0  0  0  0
    3.9591   -3.7901    0.0000 O   0  0  0  0  0  0  0  0  0  0  0  0
  1  2  1  0  0  0  0
  2  3  1  0  0  0  0
  3  4  1  0  0  0  0
  4  5  1  0  0  0  0
  6  5  1  6  0  0  0
  6  7  1  0  0  0  0
  7  8  1  0  0  0  0
  8  9  1  0  0  0  0
  9 10  1  0  0  0  0
 10 11  1  0  0  0  0
 11 12  1  0  0  0  0
 12 13  2  0  0  0  0
 13 14  1  0  0  0  0
 14 15  2  0  0  0  0
 14 16  1  0  0  0  0
 16 17  2  0  0  0  0
 17 18  1  0  0  0  0
 12 18  1  0  0  0  0
 18 19  1  0  0  0  0
 18 20  1  0  0  0  0
  9 20  1  0  0  0  0
 20 21  1  0  0  0  0
 21 22  1  1  0  0  0
 21 23  1  0  0  0  0
 23 24  1  0  0  0  0
  8 24  1  0  0  0  0
 24 25  1  0  0  0  0
 24 26  1  0  0  0  0
  6 26  1  0  0  0  0
 26 27  1  0  0  0  0
  4 27  1  0  0  0  0
 26 28  1  1  0  0  0
 28 29  2  0  0  0  0
 28 30  1  0  0  0  0
 30 31  1  0  0  0  0
M  END

> <ChembankId>
1101

> <SMILES>
CCCC1O[C@@H]2CC3C4CCC5=CC(=O)C=CC5(C)C4[C@@H](O)CC3(C)[C@@]2(O1)C(=O)CO

> <InChI>
1/C25H34O6/c1-4-5-21-30-20-11-17-16-7-6-14-10-15(27)8-9-23(14,2)22(16)18(28)12-24(17,3)25(20,31-21)19(29)13-26/h8-10,16-18,20-22,26,28H,4-7,11-13H2,1-3H3

$$$$
1102
  Marvin  11101114192D          

 18 19  0  0  0  0            999 V2000
   -0.8212    6.8277    0.0000 C   0  0  0  0  0  0  0  0  0  0  0  0
   -0.8212    6.0027    0.0000 C   0  0  0  0  0  0  0  0  0  0  0  0
   -1.5356    5.5902    0.0000 C   0  0  0  0  0  0  0  0  0  0  0  0
   -2.2501    6.0027    0.0000 O   0  0  0  0  0  0  0  0  0  0  0  0
   -1.5356    4.7652    0.0000 O   0  0  0  0  0  0  0  0  0  0  0  0
   -0.1067    5.5902    0.0000 C   0  0  0  0  0  0  0  0  0  0  0  0
    0.6078    6.0027    0.0000 C   0  0  0  0  0  0  0  0  0  0  0  0
    1.3222    5.5902    0.0000 C   0  0  0  0  0  0  0  0  0  0  0  0
    1.3222    4.7652    0.0000 C   0  0  0  0  0  0  0  0  0  0  0  0
    0.6078    4.3527    0.0000 C   0  0  0  0  0  0  0  0  0  0  0  0
   -0.1067    4.7652    0.0000 C   0  0  0  0  0  0  0  0  0  0  0  0
    2.0367    4.3527    0.0000 C   0  0  0  0  0  0  0  0  0  0  0  0
    2.7512    4.7652    0.0000 O   0  0  0  0  0  0  0  0  0  0  0  0
    2.0367    3.5277    0.0000 C   0  0  0  0  0  0  0  0  0  0  0  0
    2.7041    3.0428    0.0000 C   0  0  0  0  0  0  0  0  0  0  0  0
    2.4492    2.2581    0.0000 C   0  0  0  0  0  0  0  0  0  0  0  0
    1.6242    2.2581    0.0000 C   0  0  0  0  0  0  0  0  0  0  0  0
    1.3693    3.0428    0.0000 S   0  0  0  0  0  0  0  0  0  0  0  0
  1  2  1  0  0  0  0
  2  3  1  0  0  0  0
  3  4  2  0  0  0  0
  3  5  1  0  0  0  0
  2  6  1  0  0  0  0
  6  7  4  0  0  0  0
  7  8  4  0  0  0  0
  8  9  4  0  0  0  0
  9 10  4  0  0  0  0
 10 11  4  0  0  0  0
  6 11  4  0  0  0  0
  9 12  1  0  0  0  0
 12 13  2  0  0  0  0
 12 14  1  0  0  0  0
 14 15  4  0  0  0  0
 15 16  4  0  0  0  0
 16 17  4  0  0  0  0
 17 18  4  0  0  0  0
 14 18  4  0  0  0  0
M  END

> <ChembankId>
1102

> <SMILES>
CC(C(=O)O)c1ccc(cc1)C(=O)c2cccs2

> <InChI>
1/C14H12O3S/c1-9(14(16)17)10-4-6-11(7-5-10)13(15)12-3-2-8-18-12/h2-9H,1H3,(H,16,17)

$$$$
1104
  Marvin  11101114192D          

 29 32  0  0  1  0            999 V2000
    4.9830   -1.5571    0.0000 C   0  0  0  0  0  0  0  0  0  0  0  0
    5.2939   -0.7929    0.0000 C   0  0  2  0  0  0  0  0  0  0  0  0
    6.1111   -0.6800    0.0000 C   0  0  0  0  0  0  0  0  0  0  0  0
    6.6175   -1.3314    0.0000 C   0  0  0  0  0  0  0  0  0  0  0  0
    7.4347   -1.2185    0.0000 C   0  0  0  0  0  0  0  0  0  0  0  0
    7.9411   -1.8698    0.0000 O   0  0  0  0  0  0  0  0  0  0  0  0
    7.7456   -0.4543    0.0000 O   0  0  0  0  0  0  0  0  0  0  0  0
    4.7875   -0.1416    0.0000 C   0  0  1  0  0  0  0  0  0  0  0  0
    5.0168    0.6509    0.0000 C   0  0  0  0  0  0  0  0  0  0  0  0
    4.3340    1.1139    0.0000 C   0  0  0  0  0  0  0  0  0  0  0  0
    3.6826    0.6076    0.0000 C   0  0  0  0  0  0  0  0  0  0  0  0
    2.8705    0.7528    0.0000 C   0  0  0  0  0  0  0  0  0  0  0  0
    2.3387    0.1221    0.0000 C   0  0  0  0  0  0  0  0  0  0  0  0
    2.6190   -0.6539    0.0000 C   0  0  0  0  0  0  0  0  0  0  0  0
    3.4311   -0.7991    0.0000 C   0  0  0  0  0  0  0  0  0  0  0  0
    3.7114   -1.5750    0.0000 O   0  0  0  0  0  0  0  0  0  0  0  0
    3.9629   -0.1684    0.0000 C   0  0  2  0  0  0  0  0  0  0  0  0
    4.3228   -0.9107    0.0000 C   0  0  0  0  0  0  0  0  0  0  0  0
    1.5266    0.2673    0.0000 C   0  0  1  0  0  0  0  0  0  0  0  0
    1.8069   -0.5086    0.0000 C   0  0  0  0  0  0  0  0  0  0  0  0
    0.9948   -0.3634    0.0000 C   0  0  0  0  0  0  0  0  0  0  0  0
    0.1827   -0.2182    0.0000 C   0  0  0  0  0  0  0  0  0  0  0  0
   -0.0976    0.5577    0.0000 C   0  0  0  0  0  0  0  0  0  0  0  0
   -0.9098    0.7029    0.0000 O   0  0  0  0  0  0  0  0  0  0  0  0
    0.4342    1.1884    0.0000 C   0  0  0  0  0  0  0  0  0  0  0  0
    1.2463    1.0432    0.0000 C   0  0  0  0  0  0  0  0  0  0  0  0
    1.7781    1.6739    0.0000 C   0  0  0  0  0  0  0  0  0  0  0  0
    2.5902    1.5287    0.0000 C   0  0  0  0  0  0  0  0  0  0  0  0
    3.1220    2.1594    0.0000 O   0  0  0  0  0  0  0  0  0  0  0  0
  2  1  1  1  0  0  0
  2  3  1  0  0  0  0
  3  4  1  0  0  0  0
  4  5  1  0  0  0  0
  5  6  2  0  0  0  0
  5  7  1  0  0  0  0
  8  2  1  6  0  0  0
  8  9  1  0  0  0  0
  9 10  1  0  0  0  0
 10 11  1  0  0  0  0
 11 12  1  0  0  0  0
 12 13  1  0  0  0  0
 13 14  1  0  0  0  0
 14 15  1  0  0  0  0
 15 16  2  0  0  0  0
 15 17  1  0  0  0  0
  8 17  1  0  0  0  0
 11 17  1  0  0  0  0
 17 18  1  6  0  0  0
 13 19  1  0  0  0  0
 19 20  1  6  0  0  0
 19 21  1  0  0  0  0
 21 22  1  0  0  0  0
 22 23  1  0  0  0  0
 23 24  2  0  0  0  0
 23 25  1  0  0  0  0
 25 26  1  0  0  0  0
 19 26  1  0  0  0  0
 26 27  1  0  0  0  0
 27 28  1  0  0  0  0
 12 28  1  0  0  0  0
 28 29  2  0  0  0  0
M  END

> <ChembankId>
1104

> <SMILES>
C[C@H](CCC(=O)O)[C@H]1CCC2C3C(CC(=O)[C@]12C)[C@@]4(C)CCC(=O)CC4CC3=O

> <InChI>
1/C24H34O5/c1-13(4-7-21(28)29)16-5-6-17-22-18(12-20(27)24(16,17)3)23(2)9-8-15(25)10-14(23)11-19(22)26/h13-14,16-18,22H,4-12H2,1-3H3,(H,28,29)

$$$$
1105
  Marvin  11101114192D          

 25 27  0  0  0  0            999 V2000
    4.8908   -3.9039    0.0000 C   0  0  0  0  0  0  0  0  0  0  0  0
    5.7158   -3.9039    0.0000 C   0  0  0  0  0  0  0  0  0  0  0  0
    6.1283   -3.1895    0.0000 N   0  0  0  0  0  0  0  0  0  0  0  0
    5.7158   -2.4750    0.0000 C   0  0  0  0  0  0  0  0  0  0  0  0
    6.1283   -1.7605    0.0000 C   0  0  0  0  0  0  0  0  0  0  0  0
    6.9533   -3.1895    0.0000 C   0  0  0  0  0  0  0  0  0  0  0  0
    7.3658   -2.4750    0.0000 C   0  0  0  0  0  0  0  0  0  0  0  0
    8.1908   -2.4750    0.0000 N   0  0  0  0  0  0  0  0  0  0  0  0
    8.6033   -1.7605    0.0000 C   0  0  0  0  0  0  0  0  0  0  0  0
    8.1908   -1.0461    0.0000 C   0  0  0  0  0  0  0  0  0  0  0  0
    8.6033   -0.3316    0.0000 C   0  0  0  0  0  0  0  0  0  0  0  0
    9.4283   -0.3316    0.0000 C   0  0  0  0  0  0  0  0  0  0  0  0
    9.8408    0.3829    0.0000 C   0  0  0  0  0  0  0  0  0  0  0  0
   10.6658    0.3829    0.0000 O   0  0  0  0  0  0  0  0  0  0  0  0
    9.8408   -1.0461    0.0000 C   0  0  0  0  0  0  0  0  0  0  0  0
   10.6658   -1.0461    0.0000 S   0  0  0  0  0  0  0  0  0  0  0  0
   11.0783   -1.7605    0.0000 C   0  0  0  0  0  0  0  0  0  0  0  0
   11.9033   -1.7605    0.0000 C   0  0  0  0  0  0  0  0  0  0  0  0
   12.3158   -2.4750    0.0000 C   0  0  0  0  0  0  0  0  0  0  0  0
   11.9033   -3.1895    0.0000 C   0  0  0  0  0  0  0  0  0  0  0  0
   11.0783   -3.1895    0.0000 C   0  0  0  0  0  0  0  0  0  0  0  0
   10.6658   -2.4750    0.0000 C   0  0  0  0  0  0  0  0  0  0  0  0
    9.8408   -2.4750    0.0000 C   0  0  0  0  0  0  0  0  0  0  0  0
    9.4283   -3.1895    0.0000 O   0  0  0  0  0  0  0  0  0  0  0  0
    9.4283   -1.7605    0.0000 C   0  0  0  0  0  0  0  0  0  0  0  0
  1  2  1  0  0  0  0
  2  3  1  0  0  0  0
  3  4  1  0  0  0  0
  4  5  1  0  0  0  0
  3  6  1  0  0  0  0
  6  7  1  0  0  0  0
  7  8  1  0  0  0  0
  8  9  1  0  0  0  0
  9 10  4  0  0  0  0
 10 11  4  0  0  0  0
 11 12  4  0  0  0  0
 12 13  1  0  0  0  0
 13 14  1  0  0  0  0
 12 15  4  0  0  0  0
 15 16  4  0  0  0  0
 16 17  4  0  0  0  0
 17 18  4  0  0  0  0
 18 19  4  0  0  0  0
 19 20  4  0  0  0  0
 20 21  4  0  0  0  0
 21 22  4  0  0  0  0
 17 22  4  0  0  0  0
 22 23  4  0  0  0  0
 23 24  2  0  0  0  0
 23 25  4  0  0  0  0
  9 25  4  0  0  0  0
 15 25  4  0  0  0  0
M  END

> <ChembankId>
1105

> <SMILES>
CCN(CC)CCNc1ccc(CO)c2sc3ccccc3c(=O)c12

> <InChI>
1/C20H24N2O2S/c1-3-22(4-2)12-11-21-16-10-9-14(13-23)20-18(16)19(24)15-7-5-6-8-17(15)25-20/h5-10,21,23H,3-4,11-13H2,1-2H3

$$$$
1108
  Marvin  11101114192D          

 14 15  0  0  0  0            999 V2000
    0.7145   -0.4125    0.0000 C   0  0  0  0  0  0  0  0  0  0  0  0
    0.7145   -1.2375    0.0000 C   0  0  0  0  0  0  0  0  0  0  0  0
    1.3819   -1.7224    0.0000 C   0  0  0  0  0  0  0  0  0  0  0  0
    1.1270   -2.5070    0.0000 C   0  0  0  0  0  0  0  0  0  0  0  0
    1.6119   -3.1745    0.0000 O   0  0  0  0  0  0  0  0  0  0  0  0
    0.3020   -2.5070    0.0000 N   0  0  0  0  0  0  0  0  0  0  0  0
   -0.1830   -3.1745    0.0000 C   0  0  0  0  0  0  0  0  0  0  0  0
    0.1526   -3.9282    0.0000 C   0  0  0  0  0  0  0  0  0  0  0  0
   -0.3323   -4.5956    0.0000 C   0  0  0  0  0  0  0  0  0  0  0  0
   -1.1528   -4.5094    0.0000 C   0  0  0  0  0  0  0  0  0  0  0  0
   -1.4884   -3.7557    0.0000 C   0  0  0  0  0  0  0  0  0  0  0  0
   -1.0034   -3.0882    0.0000 C   0  0  0  0  0  0  0  0  0  0  0  0
    0.0470   -1.7224    0.0000 N   0  0  0  0  0  0  0  0  0  0  0  0
   -0.7376   -1.4675    0.0000 C   0  0  0  0  0  0  0  0  0  0  0  0
  1  2  1  0  0  0  0
  2  3  4  0  0  0  0
  3  4  4  0  0  0  0
  4  5  2  0  0  0  0
  4  6  4  0  0  0  0
  6  7  1  0  0  0  0
  7  8  4  0  0  0  0
  8  9  4  0  0  0  0
  9 10  4  0  0  0  0
 10 11  4  0  0  0  0
 11 12  4  0  0  0  0
  7 12  4  0  0  0  0
  6 13  4  0  0  0  0
  2 13  4  0  0  0  0
 13 14  1  0  0  0  0
M  END

> <ChembankId>
1108

> <SMILES>
Cc1cc(=O)n(c2ccccc2)n1C

> <InChI>
1/C11H12N2O/c1-9-8-11(14)13(12(9)2)10-6-4-3-5-7-10/h3-8H,1-2H3

$$$$
1112
  Marvin  11101114192D          

 25 26  0  0  0  0            999 V2000
    4.0145    0.1914    0.0000 C   0  0  0  0  0  0  0  0  0  0  0  0
    3.1895    0.1914    0.0000 C   0  0  0  0  0  0  0  0  0  0  0  0
    2.7770    0.9059    0.0000 C   0  0  0  0  0  0  0  0  0  0  0  0
    2.7770   -0.5230    0.0000 N   0  0  0  0  0  0  0  0  0  0  0  0
    1.9520   -0.5230    0.0000 C   0  0  0  0  0  0  0  0  0  0  0  0
    1.5395   -1.2375    0.0000 C   0  0  0  0  0  0  0  0  0  0  0  0
    0.7145   -1.2375    0.0000 C   0  0  0  0  0  0  0  0  0  0  0  0
    0.7145   -0.4125    0.0000 C   0  0  0  0  0  0  0  0  0  0  0  0
    0.0000   -0.0000    0.0000 O   0  0  0  0  0  0  0  0  0  0  0  0
    1.4289   -0.0000    0.0000 N   0  0  0  0  0  0  0  0  0  0  0  0
   -0.1105   -1.2375    0.0000 C   0  0  0  0  0  0  0  0  0  0  0  0
   -0.5230   -1.9520    0.0000 C   0  0  0  0  0  0  0  0  0  0  0  0
   -1.3480   -1.9520    0.0000 C   0  0  0  0  0  0  0  0  0  0  0  0
   -1.7605   -1.2375    0.0000 C   0  0  0  0  0  0  0  0  0  0  0  0
   -1.3480   -0.5230    0.0000 C   0  0  0  0  0  0  0  0  0  0  0  0
   -0.5230   -0.5230    0.0000 C   0  0  0  0  0  0  0  0  0  0  0  0
    0.7145   -2.0625    0.0000 C   0  0  0  0  0  0  0  0  0  0  0  0
    1.4289   -2.4750    0.0000 C   0  0  0  0  0  0  0  0  0  0  0  0
    1.4289   -3.3000    0.0000 C   0  0  0  0  0  0  0  0  0  0  0  0
    0.7145   -3.7125    0.0000 C   0  0  0  0  0  0  0  0  0  0  0  0
    0.0000   -3.3000    0.0000 C   0  0  0  0  0  0  0  0  0  0  0  0
    0.0000   -2.4750    0.0000 N   0  0  0  0  0  0  0  0  0  0  0  0
    3.1895   -1.2375    0.0000 C   0  0  0  0  0  0  0  0  0  0  0  0
    4.0145   -1.2375    0.0000 C   0  0  0  0  0  0  0  0  0  0  0  0
    2.7770   -1.9520    0.0000 C   0  0  0  0  0  0  0  0  0  0  0  0
  1  2  1  0  0  0  0
  2  3  1  0  0  0  0
  2  4  1  0  0  0  0
  4  5  1  0  0  0  0
  5  6  1  0  0  0  0
  6  7  1  0  0  0  0
  7  8  1  0  0  0  0
  8  9  2  0  0  0  0
  8 10  1  0  0  0  0
  7 11  1  0  0  0  0
 11 12  4  0  0  0  0
 12 13  4  0  0  0  0
 13 14  4  0  0  0  0
 14 15  4  0  0  0  0
 15 16  4  0  0  0  0
 11 16  4  0  0  0  0
  7 17  1  0  0  0  0
 17 18  4  0  0  0  0
 18 19  4  0  0  0  0
 19 20  4  0  0  0  0
 20 21  4  0  0  0  0
 21 22  4  0  0  0  0
 17 22  4  0  0  0  0
  4 23  1  0  0  0  0
 23 24  1  0  0  0  0
 23 25  1  0  0  0  0
M  END

> <ChembankId>
1112

> <SMILES>
CC(C)N(CCC(C(=O)N)(c1ccccc1)c2ccccn2)C(C)C

> <InChI>
1/C21H29N3O/c1-16(2)24(17(3)4)15-13-21(20(22)25,18-10-6-5-7-11-18)19-12-8-9-14-23-19/h5-12,14,16-17H,13,15H2,1-4H3,(H2,22,25)

$$$$
1113
  Marvin  11101114192D          

 29 31  0  0  0  0            999 V2000
    0.6160   -1.0714    0.0000 C   0  0  0  0  0  0  0  0  0  0  0  0
    0.0640   -0.4583    0.0000 O   0  0  0  0  0  0  0  0  0  0  0  0
    0.3190    0.3263    0.0000 C   0  0  0  0  0  0  0  0  0  0  0  0
   -0.2331    0.9394    0.0000 C   0  0  0  0  0  0  0  0  0  0  0  0
    0.0219    1.7240    0.0000 C   0  0  0  0  0  0  0  0  0  0  0  0
    0.8288    1.8955    0.0000 C   0  0  0  0  0  0  0  0  0  0  0  0
    1.2413    2.6100    0.0000 N   0  0  0  0  0  0  0  0  0  0  0  0
    0.9058    3.3637    0.0000 C   0  0  0  0  0  0  0  0  0  0  0  0
    1.3907    4.0311    0.0000 O   0  0  0  0  0  0  0  0  0  0  0  0
    0.0853    3.4499    0.0000 C   0  0  0  0  0  0  0  0  0  0  0  0
   -0.3996    2.7825    0.0000 C   0  0  0  0  0  0  0  0  0  0  0  0
   -1.2201    2.8687    0.0000 C   0  0  0  0  0  0  0  0  0  0  0  0
   -1.5557    3.6224    0.0000 C   0  0  0  0  0  0  0  0  0  0  0  0
   -2.3762    3.7086    0.0000 Cl  0  0  0  0  0  0  0  0  0  0  0  0
   -1.0707    4.2898    0.0000 C   0  0  0  0  0  0  0  0  0  0  0  0
   -0.2503    4.2036    0.0000 C   0  0  0  0  0  0  0  0  0  0  0  0
    2.0483    2.4385    0.0000 C   0  0  0  0  0  0  0  0  0  0  0  0
    2.6614    2.9905    0.0000 C   0  0  0  0  0  0  0  0  0  0  0  0
    2.1345    1.6180    0.0000 C   0  0  0  0  0  0  0  0  0  0  0  0
    2.8490    1.2055    0.0000 C   0  0  0  0  0  0  0  0  0  0  0  0
    3.5635    1.6180    0.0000 C   0  0  0  0  0  0  0  0  0  0  0  0
    3.5635    2.4430    0.0000 O   0  0  0  0  0  0  0  0  0  0  0  0
    4.2780    1.2055    0.0000 O   0  0  0  0  0  0  0  0  0  0  0  0
    4.9924    1.6180    0.0000 C   0  0  0  0  0  0  0  0  0  0  0  0
    5.7069    1.2055    0.0000 C   0  0  0  0  0  0  0  0  0  0  0  0
    6.4214    1.6180    0.0000 O   0  0  0  0  0  0  0  0  0  0  0  0
    5.7069    0.3805    0.0000 O   0  0  0  0  0  0  0  0  0  0  0  0
    1.3809    1.2824    0.0000 C   0  0  0  0  0  0  0  0  0  0  0  0
    1.1259    0.4978    0.0000 C   0  0  0  0  0  0  0  0  0  0  0  0
  1  2  1  0  0  0  0
  2  3  1  0  0  0  0
  3  4  4  0  0  0  0
  4  5  4  0  0  0  0
  5  6  4  0  0  0  0
  6  7  4  0  0  0  0
  7  8  1  0  0  0  0
  8  9  2  0  0  0  0
  8 10  1  0  0  0  0
 10 11  4  0  0  0  0
 11 12  4  0  0  0  0
 12 13  4  0  0  0  0
 13 14  1  0  0  0  0
 13 15  4  0  0  0  0
 15 16  4  0  0  0  0
 10 16  4  0  0  0  0
  7 17  4  0  0  0  0
 17 18  1  0  0  0  0
 17 19  4  0  0  0  0
 19 20  1  0  0  0  0
 20 21  1  0  0  0  0
 21 22  2  0  0  0  0
 21 23  1  0  0  0  0
 23 24  1  0  0  0  0
 24 25  1  0  0  0  0
 25 26  2  0  0  0  0
 25 27  1  0  0  0  0
 19 28  4  0  0  0  0
  6 28  4  0  0  0  0
 28 29  4  0  0  0  0
  3 29  4  0  0  0  0
M  END

> <ChembankId>
1113

> <SMILES>
COc1ccc2n(C(=O)c3ccc(Cl)cc3)c(C)c(CC(=O)OCC(=O)O)c2c1

> <InChI>
1/C21H18ClNO6/c1-12-16(10-20(26)29-11-19(24)25)17-9-15(28-2)7-8-18(17)23(12)21(27)13-3-5-14(22)6-4-13/h3-9H,10-11H2,1-2H3,(H,24,25)

$$$$
1114
  Marvin  11101114192D          

 26 28  0  0  0  0            999 V2000
   -2.1434   -2.0625    0.0000 N   0  0  0  0  0  0  0  0  0  0  0  0
   -1.4289   -1.6500    0.0000 S   0  0  0  0  0  0  0  0  0  0  0  0
   -1.0164   -2.3645    0.0000 O   0  0  0  0  0  0  0  0  0  0  0  0
   -1.8414   -0.9355    0.0000 O   0  0  0  0  0  0  0  0  0  0  0  0
   -0.7145   -1.2375    0.0000 C   0  0  0  0  0  0  0  0  0  0  0  0
    0.0000   -1.6500    0.0000 C   0  0  0  0  0  0  0  0  0  0  0  0
    0.7145   -1.2375    0.0000 C   0  0  0  0  0  0  0  0  0  0  0  0
    0.7145   -0.4125    0.0000 C   0  0  0  0  0  0  0  0  0  0  0  0
    1.4289   -0.0000    0.0000 N   0  0  0  0  0  0  0  0  0  0  0  0
    2.1434   -0.4125    0.0000 C   0  0  0  0  0  0  0  0  0  0  0  0
    2.8579   -0.0000    0.0000 C   0  0  0  0  0  0  0  0  0  0  0  0
    3.5724   -0.4125    0.0000 S   0  0  0  0  0  0  0  0  0  0  0  0
    4.2868   -0.0000    0.0000 C   0  0  0  0  0  0  0  0  0  0  0  0
    5.0013   -0.4125    0.0000 C   0  0  0  0  0  0  0  0  0  0  0  0
    5.7158   -0.0000    0.0000 C   0  0  0  0  0  0  0  0  0  0  0  0
    6.4302   -0.4125    0.0000 C   0  0  0  0  0  0  0  0  0  0  0  0
    6.4302   -1.2375    0.0000 C   0  0  0  0  0  0  0  0  0  0  0  0
    5.7158   -1.6500    0.0000 C   0  0  0  0  0  0  0  0  0  0  0  0
    5.0013   -1.2375    0.0000 C   0  0  0  0  0  0  0  0  0  0  0  0
    2.1434   -1.2375    0.0000 N   0  0  0  0  0  0  0  0  0  0  0  0
    1.4289   -1.6500    0.0000 S   0  0  0  0  0  0  0  0  0  0  0  0
    1.8163   -2.3784    0.0000 O   0  0  0  0  0  0  0  0  0  0  0  0
    1.0416   -2.3784    0.0000 O   0  0  0  0  0  0  0  0  0  0  0  0
    0.0000   -0.0000    0.0000 C   0  0  0  0  0  0  0  0  0  0  0  0
   -0.7145   -0.4125    0.0000 C   0  0  0  0  0  0  0  0  0  0  0  0
   -1.4289    0.0000    0.0000 Cl  0  0  0  0  0  0  0  0  0  0  0  0
  1  2  1  0  0  0  0
  2  3  2  0  0  0  0
  2  4  2  0  0  0  0
  2  5  1  0  0  0  0
  5  6  4  0  0  0  0
  6  7  4  0  0  0  0
  7  8  4  0  0  0  0
  8  9  1  0  0  0  0
  9 10  2  0  0  0  0
 10 11  1  0  0  0  0
 11 12  1  0  0  0  0
 12 13  1  0  0  0  0
 13 14  1  0  0  0  0
 14 15  4  0  0  0  0
 15 16  4  0  0  0  0
 16 17  4  0  0  0  0
 17 18  4  0  0  0  0
 18 19  4  0  0  0  0
 14 19  4  0  0  0  0
 10 20  1  0  0  0  0
 20 21  1  0  0  0  0
  7 21  1  0  0  0  0
 21 22  2  0  0  0  0
 21 23  2  0  0  0  0
  8 24  4  0  0  0  0
 24 25  4  0  0  0  0
  5 25  4  0  0  0  0
 25 26  1  0  0  0  0
M  END

> <ChembankId>
1114

> <SMILES>
NS(=O)(=O)c1cc2c(N=C(CSCc3ccccc3)NS2(=O)=O)cc1Cl

> <InChI>
1/C15H14ClN3O4S3/c16-11-6-12-14(7-13(11)25(17,20)21)26(22,23)19-15(18-12)9-24-8-10-4-2-1-3-5-10/h1-7H,8-9H2,(H,18,19)(H2,17,20,21)

$$$$
1115
  Marvin  11101114192D          

 22 25  0  0  1  0            999 V2000
   -2.0361   -0.6122    0.0000 C   0  0  0  0  0  0  0  0  0  0  0  0
   -1.6762   -1.3546    0.0000 C   0  0  2  0  0  0  0  0  0  0  0  0
   -1.1444   -0.7239    0.0000 C   0  0  0  0  0  0  0  0  0  0  0  0
   -0.3323   -0.8691    0.0000 C   0  0  0  0  0  0  0  0  0  0  0  0
   -0.0520   -1.6450    0.0000 C   0  0  0  0  0  0  0  0  0  0  0  0
   -0.5838   -2.2757    0.0000 C   0  0  0  0  0  0  0  0  0  0  0  0
   -0.3035   -3.0516    0.0000 C   0  0  0  0  0  0  0  0  0  0  0  0
    0.5086   -3.1969    0.0000 C   0  0  0  0  0  0  0  0  0  0  0  0
    1.0404   -2.5662    0.0000 C   0  0  0  0  0  0  0  0  0  0  0  0
    0.7601   -1.7902    0.0000 C   0  0  0  0  0  0  0  0  0  0  0  0
    1.2920   -1.1595    0.0000 C   0  0  0  0  0  0  0  0  0  0  0  0
    2.1041   -1.3047    0.0000 C   0  0  0  0  0  0  0  0  0  0  0  0
    2.3844   -2.0807    0.0000 C   0  0  0  0  0  0  0  0  0  0  0  0
    3.1965   -2.2259    0.0000 O   0  0  0  0  0  0  0  0  0  0  0  0
    1.8526   -2.7114    0.0000 C   0  0  0  0  0  0  0  0  0  0  0  0
   -1.3959   -2.1305    0.0000 C   0  0  0  0  0  0  0  0  0  0  0  0
   -2.0473   -2.6369    0.0000 C   0  0  0  0  0  0  0  0  0  0  0  0
   -2.7301   -2.1739    0.0000 C   0  0  0  0  0  0  0  0  0  0  0  0
   -2.5008   -1.3814    0.0000 C   0  0  2  0  0  0  0  0  0  0  0  0
   -3.2617   -1.0625    0.0000 O   0  0  0  0  0  0  0  0  0  0  0  0
   -2.6222   -0.5654    0.0000 C   0  0  0  0  0  0  0  0  0  0  0  0
   -2.7436    0.2506    0.0000 C   0  0  0  0  0  0  0  0  0  0  0  0
  2  1  1  6  0  0  0
  2  3  1  0  0  0  0
  3  4  1  0  0  0  0
  4  5  1  0  0  0  0
  5  6  1  0  0  0  0
  6  7  1  0  0  0  0
  7  8  1  0  0  0  0
  8  9  1  0  0  0  0
  9 10  2  0  0  0  0
  5 10  1  0  0  0  0
 10 11  1  0  0  0  0
 11 12  1  0  0  0  0
 12 13  1  0  0  0  0
 13 14  2  0  0  0  0
 13 15  1  0  0  0  0
  9 15  1  0  0  0  0
  6 16  1  0  0  0  0
  2 16  1  0  0  0  0
 16 17  1  0  0  0  0
 17 18  1  0  0  0  0
 18 19  1  0  0  0  0
  2 19  1  0  0  0  0
 19 20  1  6  0  0  0
 19 21  1  1  0  0  0
 21 22  3  0  0  0  0
M  END

> <ChembankId>
1115

> <SMILES>
C[C@@]12CCC3C(CCC4=C3CCC(=O)C4)C2CC[C@@]1(O)C#C

> <InChI>
1/C20H26O2/c1-3-20(22)11-9-18-17-6-4-13-12-14(21)5-7-15(13)16(17)8-10-19(18,20)2/h1,16-18,22H,4-12H2,2H3

$$$$
1116
  Marvin  11101114192D          

 10 11  0  0  0  0            999 V2000
    3.2789    2.0625    0.0000 S   0  0  0  0  0  0  0  0  0  0  0  0
    3.2789    1.2375    0.0000 C   0  0  0  0  0  0  0  0  0  0  0  0
    3.9934    0.8250    0.0000 N   0  0  0  0  0  0  0  0  0  0  0  0
    3.9934    0.0000    0.0000 C   0  0  0  0  0  0  0  0  0  0  0  0
    3.2789   -0.4125    0.0000 N   0  0  0  0  0  0  0  0  0  0  0  0
    2.5645    0.0000    0.0000 C   0  0  0  0  0  0  0  0  0  0  0  0
    1.7798   -0.2549    0.0000 N   0  0  0  0  0  0  0  0  0  0  0  0
    1.2949    0.4125    0.0000 C   0  0  0  0  0  0  0  0  0  0  0  0
    1.7798    1.0799    0.0000 N   0  0  0  0  0  0  0  0  0  0  0  0
    2.5645    0.8250    0.0000 C   0  0  0  0  0  0  0  0  0  0  0  0
  1  2  2  0  0  0  0
  2  3  4  0  0  0  0
  3  4  4  0  0  0  0
  4  5  4  0  0  0  0
  5  6  4  0  0  0  0
  6  7  4  0  0  0  0
  7  8  4  0  0  0  0
  8  9  4  0  0  0  0
  9 10  4  0  0  0  0
  2 10  4  0  0  0  0
  6 10  4  0  0  0  0
M  STY  2   1 DAT   2 DAT
M  SAL   1  1   3
M  SDT   1 MRV_IMPLICIT_H                                        
M  SDD   1     0.0000    0.0000    DR    ALL  0       0  
M  SED   1 IMPL_H1
M  SAL   2  1   9
M  SDT   2 MRV_IMPLICIT_H                                        
M  SDD   2     0.0000    0.0000    DR    ALL  0       0  
M  SED   2 IMPL_H1
M  END

> <ChembankId>
1116

> <SMILES>
S=c1[nH]cnc2nc[nH]c12

> <InChI>
1/C5H4N4S/c10-5-3-4(7-1-6-3)8-2-9-5/h1-2H,(H2,6,7,8,9,10)

$$$$
1117
  Marvin  11101114192D          

 32 34  0  0  1  0            999 V2000
  -12.1460   -0.4125    0.0000 N   0  0  0  0  0  0  0  0  0  0  0  0
  -11.4315   -0.0000    0.0000 C   0  0  0  0  0  0  0  0  0  0  0  0
  -11.4315    0.8250    0.0000 N   0  0  0  0  0  0  0  0  0  0  0  0
  -10.7171    1.2375    0.0000 C   0  0  0  0  0  0  0  0  0  0  0  0
  -10.7171    2.0625    0.0000 O   0  0  0  0  0  0  0  0  0  0  0  0
  -10.0026    0.8250    0.0000 C   0  0  0  0  0  0  0  0  0  0  0  0
   -9.2881    1.2375    0.0000 N   0  0  0  0  0  0  0  0  0  0  0  0
   -8.5737    0.8250    0.0000 C   0  0  0  0  0  0  0  0  0  0  0  0
   -7.8592    1.2375    0.0000 C   0  0  0  0  0  0  0  0  0  0  0  0
   -7.8592    2.0625    0.0000 N   0  0  0  0  0  0  0  0  0  0  0  0
   -7.1447    2.4750    0.0000 C   0  0  0  0  0  0  0  0  0  0  0  0
   -7.1447    3.3000    0.0000 C   0  0  0  0  0  0  0  0  0  0  0  0
   -6.4302    3.7125    0.0000 C   0  0  0  0  0  0  0  0  0  0  0  0
   -5.7158    3.3000    0.0000 C   0  0  0  0  0  0  0  0  0  0  0  0
   -5.7158    2.4750    0.0000 C   0  0  0  0  0  0  0  0  0  0  0  0
   -6.4302    2.0625    0.0000 C   0  0  0  0  0  0  0  0  0  0  0  0
   -5.0013    3.7125    0.0000 C   0  0  0  0  0  0  0  0  0  0  0  0
   -5.0013    4.5375    0.0000 O   0  0  0  0  0  0  0  0  0  0  0  0
   -4.2868    3.3000    0.0000 N   0  0  0  0  0  0  0  0  0  0  0  0
   -3.5724    3.7125    0.0000 C   0  0  1  0  0  0  0  0  0  0  0  0
   -2.8579    3.3000    0.0000 C   0  0  0  0  0  0  0  0  0  0  0  0
   -2.1434    3.7125    0.0000 C   0  0  0  0  0  0  0  0  0  0  0  0
   -1.4289    3.3000    0.0000 C   0  0  0  0  0  0  0  0  0  0  0  0
   -0.7145    3.7125    0.0000 O   0  0  0  0  0  0  0  0  0  0  0  0
   -1.4289    2.4750    0.0000 O   0  0  0  0  0  0  0  0  0  0  0  0
   -3.5724    4.5375    0.0000 C   0  0  0  0  0  0  0  0  0  0  0  0
   -2.8579    4.9500    0.0000 O   0  0  0  0  0  0  0  0  0  0  0  0
   -4.2868    4.9500    0.0000 O   0  0  0  0  0  0  0  0  0  0  0  0
   -8.5737   -0.0000    0.0000 C   0  0  0  0  0  0  0  0  0  0  0  0
   -9.2881   -0.4125    0.0000 N   0  0  0  0  0  0  0  0  0  0  0  0
  -10.0026   -0.0000    0.0000 C   0  0  0  0  0  0  0  0  0  0  0  0
  -10.7171   -0.4125    0.0000 N   0  0  0  0  0  0  0  0  0  0  0  0
  1  2  1  0  0  0  0
  2  3  4  0  0  0  0
  3  4  4  0  0  0  0
  4  5  2  0  0  0  0
  4  6  4  0  0  0  0
  6  7  4  0  0  0  0
  7  8  4  0  0  0  0
  8  9  1  0  0  0  0
  9 10  1  0  0  0  0
 10 11  1  0  0  0  0
 11 12  4  0  0  0  0
 12 13  4  0  0  0  0
 13 14  4  0  0  0  0
 14 15  4  0  0  0  0
 15 16  4  0  0  0  0
 11 16  4  0  0  0  0
 14 17  1  0  0  0  0
 17 18  2  0  0  0  0
 17 19  1  0  0  0  0
 20 19  1  6  0  0  0
 20 21  1  0  0  0  0
 21 22  1  0  0  0  0
 22 23  1  0  0  0  0
 23 24  2  0  0  0  0
 23 25  1  0  0  0  0
 20 26  1  0  0  0  0
 26 27  2  0  0  0  0
 26 28  1  0  0  0  0
  8 29  4  0  0  0  0
 29 30  4  0  0  0  0
 30 31  4  0  0  0  0
  6 31  4  0  0  0  0
 31 32  4  0  0  0  0
  2 32  4  0  0  0  0
M  STY  1   1 DAT
M  SAL   1  1  32
M  SDT   1 MRV_IMPLICIT_H                                        
M  SDD   1     0.0000    0.0000    DR    ALL  0       0  
M  SED   1 IMPL_H1
M  END

> <ChembankId>
1117

> <SMILES>
Nc1nc(=O)c2nc(CNc3ccc(cc3)C(=O)N[C@@H](CCC(=O)O)C(=O)O)cnc2[nH]1

> <InChI>
1/C19H19N7O6/c20-19-25-15-14(17(30)26-19)23-11(8-22-15)7-21-10-3-1-9(2-4-10)16(29)24-12(18(31)32)5-6-13(27)28/h1-4,8,12,21H,5-7H2,(H,24,29)(H,27,28)(H,31,32)(H3,20,22,25,26,30)

$$$$
1123
  Marvin  11101114192D          

 19 20  0  0  0  0            999 V2000
   -0.7145   -0.4125    0.0000 C   0  0  0  0  0  0  0  0  0  0  0  0
   -0.7145   -1.2375    0.0000 C   0  0  0  0  0  0  0  0  0  0  0  0
   -1.4289   -1.6500    0.0000 C   0  0  0  0  0  0  0  0  0  0  0  0
   -1.4289   -2.4750    0.0000 C   0  0  0  0  0  0  0  0  0  0  0  0
   -0.7145   -2.8875    0.0000 C   0  0  0  0  0  0  0  0  0  0  0  0
   -0.7145   -3.7125    0.0000 Cl  0  0  0  0  0  0  0  0  0  0  0  0
    0.0000   -2.4750    0.0000 C   0  0  0  0  0  0  0  0  0  0  0  0
    0.7145   -2.8875    0.0000 N   0  0  0  0  0  0  0  0  0  0  0  0
    1.4289   -2.4750    0.0000 C   0  0  0  0  0  0  0  0  0  0  0  0
    1.4289   -1.6500    0.0000 C   0  0  0  0  0  0  0  0  0  0  0  0
    2.1434   -1.2375    0.0000 C   0  0  0  0  0  0  0  0  0  0  0  0
    2.8579   -1.6500    0.0000 C   0  0  0  0  0  0  0  0  0  0  0  0
    2.8579   -2.4750    0.0000 C   0  0  0  0  0  0  0  0  0  0  0  0
    2.1434   -2.8875    0.0000 C   0  0  0  0  0  0  0  0  0  0  0  0
    2.1434   -3.7125    0.0000 C   0  0  0  0  0  0  0  0  0  0  0  0
    1.4289   -4.1250    0.0000 O   0  0  0  0  0  0  0  0  0  0  0  0
    2.8579   -4.1250    0.0000 O   0  0  0  0  0  0  0  0  0  0  0  0
    0.0000   -1.6500    0.0000 C   0  0  0  0  0  0  0  0  0  0  0  0
    0.7145   -1.2375    0.0000 Cl  0  0  0  0  0  0  0  0  0  0  0  0
  1  2  1  0  0  0  0
  2  3  4  0  0  0  0
  3  4  4  0  0  0  0
  4  5  4  0  0  0  0
  5  6  1  0  0  0  0
  5  7  4  0  0  0  0
  7  8  1  0  0  0  0
  8  9  1  0  0  0  0
  9 10  4  0  0  0  0
 10 11  4  0  0  0  0
 11 12  4  0  0  0  0
 12 13  4  0  0  0  0
 13 14  4  0  0  0  0
  9 14  4  0  0  0  0
 14 15  1  0  0  0  0
 15 16  2  0  0  0  0
 15 17  1  0  0  0  0
  7 18  4  0  0  0  0
  2 18  4  0  0  0  0
 18 19  1  0  0  0  0
M  END

> <ChembankId>
1123

> <SMILES>
Cc1ccc(Cl)c(Nc2ccccc2C(=O)O)c1Cl

> <InChI>
1/C14H11Cl2NO2/c1-8-6-7-10(15)13(12(8)16)17-11-5-3-2-4-9(11)14(18)19/h2-7,17H,1H3,(H,18,19)

$$$$
1124
  Marvin  11101114192D          

 21 23  0  0  1  0            999 V2000
    0.0773    0.5912    0.0000 C   0  0  0  0  0  0  0  0  0  0  0  0
    0.4999   -0.1173    0.0000 N   0  0  0  0  0  0  0  0  0  0  0  0
    1.0605   -0.5572    0.0000 C   0  0  0  0  0  0  0  0  0  0  0  0
    0.7400   -1.2658    0.0000 C   0  0  0  0  0  0  0  0  0  0  0  0
    0.1197   -1.6427    0.0000 C   0  0  0  0  0  0  0  0  0  0  0  0
    0.6396   -0.9304    0.0000 C   0  0  2  0  0  0  0  0  0  0  0  0
    1.6113   -0.9304    0.0000 C   0  0  0  0  0  0  0  0  0  0  0  0
    2.1275   -1.3591    0.0000 C   0  0  2  0  0  0  0  0  0  0  0  0
    1.9893   -0.5417    0.0000 C   0  0  0  0  0  0  0  0  0  0  0  0
    2.5393   -2.0740    0.0000 O   0  0  0  0  0  0  0  0  0  0  0  0
    2.1261   -2.7880    0.0000 C   0  0  0  0  0  0  0  0  0  0  0  0
    1.3011   -2.7872    0.0000 O   0  0  0  0  0  0  0  0  0  0  0  0
    2.5379   -3.5029    0.0000 C   0  0  2  0  0  0  0  0  0  0  0  0
    3.3629   -3.5037    0.0000 C   0  0  0  0  0  0  0  0  0  0  0  0
    3.7747   -4.2186    0.0000 O   0  0  0  0  0  0  0  0  0  0  0  0
    2.1247   -4.2170    0.0000 C   0  0  0  0  0  0  0  0  0  0  0  0
    2.5365   -4.9319    0.0000 C   0  0  0  0  0  0  0  0  0  0  0  0
    2.1233   -5.6459    0.0000 C   0  0  0  0  0  0  0  0  0  0  0  0
    1.2983   -5.6451    0.0000 C   0  0  0  0  0  0  0  0  0  0  0  0
    0.8865   -4.9302    0.0000 C   0  0  0  0  0  0  0  0  0  0  0  0
    1.2997   -4.2162    0.0000 C   0  0  0  0  0  0  0  0  0  0  0  0
  1  2  1  0  0  0  0
  2  3  1  0  0  0  0
  3  4  1  0  0  0  0
  4  5  1  0  0  0  0
  5  6  1  0  0  0  0
  2  6  1  0  0  0  0
  6  7  1  1  0  0  0
  7  8  1  0  0  0  0
  8  9  1  0  0  0  0
  3  9  1  0  0  0  0
  8 10  1  6  0  0  0
 10 11  1  0  0  0  0
 11 12  2  0  0  0  0
 11 13  1  0  0  0  0
 13 14  1  0  0  0  0
 14 15  1  0  0  0  0
 13 16  1  6  0  0  0
 16 17  4  0  0  0  0
 17 18  4  0  0  0  0
 18 19  4  0  0  0  0
 19 20  4  0  0  0  0
 20 21  4  0  0  0  0
 16 21  4  0  0  0  0
M  END

> <ChembankId>
1124

> <SMILES>
CN1C2CC[C@@H]1C[C@H](C2)OC(=O)[C@H](CO)c3ccccc3

> <InChI>
1/C17H23NO3/c1-18-13-7-8-14(18)10-15(9-13)21-17(20)16(11-19)12-5-3-2-4-6-12/h2-6,13-16,19H,7-11H2,1H3

$$$$
1000124
  Marvin  11101114192D          

 21 23  0  0  0  0            999 V2000
    0.0773    0.5912    0.0000 C   0  0  0  0  0  0  0  0  0  0  0  0
    0.4999   -0.1173    0.0000 N   0  0  0  0  0  0  0  0  0  0  0  0
    1.0605   -0.5572    0.0000 C   0  0  0  0  0  0  0  0  0  0  0  0
    0.7400   -1.2658    0.0000 C   0  0  0  0  0  0  0  0  0  0  0  0
    0.1197   -1.6427    0.0000 C   0  0  0  0  0  0  0  0  0  0  0  0
    0.6396   -0.9304    0.0000 C   0  0  0  0  0  0  0  0  0  0  0  0
    1.6113   -0.9304    0.0000 C   0  0  0  0  0  0  0  0  0  0  0  0
    2.1275   -1.3591    0.0000 C   0  0  0  0  0  0  0  0  0  0  0  0
    1.9893   -0.5417    0.0000 C   0  0  0  0  0  0  0  0  0  0  0  0
    2.5393   -2.0740    0.0000 O   0  0  0  0  0  0  0  0  0  0  0  0
    2.1261   -2.7880    0.0000 C   0  0  0  0  0  0  0  0  0  0  0  0
    1.3011   -2.7872    0.0000 O   0  0  0  0  0  0  0  0  0  0  0  0
    2.5379   -3.5029    0.0000 C   0  0  0  0  0  0  0  0  0  0  0  0
    3.3629   -3.5037    0.0000 C   0  0  0  0  0  0  0  0  0  0  0  0
    3.7747   -4.2186    0.0000 O   0  0  0  0  0  0  0  0  0  0  0  0
    2.1247   -4.2170    0.0000 C   0  0  0  0  0  0  0  0  0  0  0  0
    2.5365   -4.9319    0.0000 C   0  0  0  0  0  0  0  0  0  0  0  0
    2.1233   -5.6459    0.0000 C   0  0  0  0  0  0  0  0  0  0  0  0
    1.2983   -5.6451    0.0000 C   0  0  0  0  0  0  0  0  0  0  0  0
    0.8865   -4.9302    0.0000 C   0  0  0  0  0  0  0  0  0  0  0  0
    1.2997   -4.2162    0.0000 C   0  0  0  0  0  0  0  0  0  0  0  0
  1  2  1  0  0  0  0
  2  3  1  0  0  0  0
  3  4  1  0  0  0  0
  4  5  1  0  0  0  0
  5  6  1  0  0  0  0
  2  6  1  0  0  0  0
  6  7  1  0  0  0  0
  7  8  1  0  0  0  0
  8  9  1  0  0  0  0
  3  9  1  0  0  0  0
  8 10  1  0  0  0  0
 10 11  1  0  0  0  0
 11 12  2  0  0  0  0
 11 13  1  0  0  0  0
 13 14  1  0  0  0  0
 14 15  1  0  0  0  0
 13 16  1  0  0  0  0
 16 17  4  0  0  0  0
 17 18  4  0  0  0  0
 18 19  4  0  0  0  0
 19 20  4  0  0  0  0
 20 21  4  0  0  0  0
 16 21  4  0  0  0  0
M  END

> <ChembankId>
1000124

> <SMILES>
CN1C2CCC1CC(C2)OC(=O)C(CO)c3ccccc3

> <InChI>
1/C17H23NO3/c1-18-13-7-8-14(18)10-15(9-13)21-17(20)16(11-19)12-5-3-2-4-6-12/h2-6,13-16,19H,7-11H2,1H3

$$$$
1125
  Marvin  11101114192D          

 17 18  0  0  0  0            999 V2000
    5.0013    0.4125    0.0000 C   0  0  0  0  0  0  0  0  0  0  0  0
    5.7158    0.0000    0.0000 C   0  0  0  0  0  0  0  0  0  0  0  0
    6.4302    0.4125    0.0000 O   0  0  0  0  0  0  0  0  0  0  0  0
    7.1447    0.0000    0.0000 C   0  0  0  0  0  0  0  0  0  0  0  0
    7.1447   -0.8250    0.0000 O   0  0  0  0  0  0  0  0  0  0  0  0
    7.8592    0.4125    0.0000 N   0  0  0  0  0  0  0  0  0  0  0  0
    8.5737    0.0000    0.0000 N   0  0  0  0  0  0  0  0  0  0  0  0
    9.2881    0.4125    0.0000 C   0  0  0  0  0  0  0  0  0  0  0  0
    9.2881    1.2375    0.0000 N   0  0  0  0  0  0  0  0  0  0  0  0
   10.0026    1.6500    0.0000 N   0  0  0  0  0  0  0  0  0  0  0  0
   10.7171    1.2375    0.0000 C   0  0  0  0  0  0  0  0  0  0  0  0
   10.7171    0.4125    0.0000 C   0  0  0  0  0  0  0  0  0  0  0  0
   11.4315    0.0000    0.0000 C   0  0  0  0  0  0  0  0  0  0  0  0
   11.4315   -0.8250    0.0000 C   0  0  0  0  0  0  0  0  0  0  0  0
   10.7171   -1.2375    0.0000 C   0  0  0  0  0  0  0  0  0  0  0  0
   10.0026   -0.8250    0.0000 C   0  0  0  0  0  0  0  0  0  0  0  0
   10.0026    0.0000    0.0000 C   0  0  0  0  0  0  0  0  0  0  0  0
  1  2  1  0  0  0  0
  2  3  1  0  0  0  0
  3  4  1  0  0  0  0
  4  5  2  0  0  0  0
  4  6  1  0  0  0  0
  6  7  1  0  0  0  0
  7  8  1  0  0  0  0
  8  9  4  0  0  0  0
  9 10  4  0  0  0  0
 10 11  4  0  0  0  0
 11 12  4  0  0  0  0
 12 13  4  0  0  0  0
 13 14  4  0  0  0  0
 14 15  4  0  0  0  0
 15 16  4  0  0  0  0
 16 17  4  0  0  0  0
  8 17  4  0  0  0  0
 12 17  4  0  0  0  0
M  END

> <ChembankId>
1125

> <SMILES>
CCOC(=O)NNc1nncc2ccccc12

> <InChI>
1/C11H12N4O2/c1-2-17-11(16)15-14-10-9-6-4-3-5-8(9)7-12-13-10/h3-7H,2H2,1H3,(H,13,14)(H,15,16)

$$$$
1127
  Marvin  11101114192D          

 24 26  0  0  0  0            999 V2000
   -0.1712   -0.6979    0.0000 C   0  0  0  0  0  0  0  0  0  0  0  0
    0.6538   -0.6979    0.0000 C   0  0  0  0  0  0  0  0  0  0  0  0
    1.1387   -0.0305    0.0000 C   0  0  0  0  0  0  0  0  0  0  0  0
    1.9233   -0.2854    0.0000 C   0  0  0  0  0  0  0  0  0  0  0  0
    2.6378    0.1271    0.0000 C   0  0  0  0  0  0  0  0  0  0  0  0
    3.3523   -0.2854    0.0000 C   0  0  0  0  0  0  0  0  0  0  0  0
    3.3523   -1.1104    0.0000 C   0  0  0  0  0  0  0  0  0  0  0  0
    2.6378   -1.5229    0.0000 C   0  0  0  0  0  0  0  0  0  0  0  0
    1.9233   -1.1104    0.0000 C   0  0  0  0  0  0  0  0  0  0  0  0
    1.1387   -1.3654    0.0000 N   0  0  0  0  0  0  0  0  0  0  0  0
    0.8838   -2.1500    0.0000 N   0  0  0  0  0  0  0  0  0  0  0  0
    1.4358   -2.7631    0.0000 C   0  0  0  0  0  0  0  0  0  0  0  0
    2.2428   -2.5916    0.0000 O   0  0  0  0  0  0  0  0  0  0  0  0
    1.1809   -3.5477    0.0000 C   0  0  0  0  0  0  0  0  0  0  0  0
    1.7329   -4.1608    0.0000 C   0  0  0  0  0  0  0  0  0  0  0  0
    1.4780   -4.9454    0.0000 C   0  0  0  0  0  0  0  0  0  0  0  0
    0.6710   -5.1170    0.0000 C   0  0  0  0  0  0  0  0  0  0  0  0
    0.4161   -5.9016    0.0000 Cl  0  0  0  0  0  0  0  0  0  0  0  0
    0.1190   -4.5039    0.0000 C   0  0  0  0  0  0  0  0  0  0  0  0
    0.3739   -3.7192    0.0000 C   0  0  0  0  0  0  0  0  0  0  0  0
   -0.6880   -4.6754    0.0000 S   0  0  0  0  0  0  0  0  0  0  0  0
   -1.4950   -4.8469    0.0000 O   0  0  0  0  0  0  0  0  0  0  0  0
   -0.8595   -3.8684    0.0000 O   0  0  0  0  0  0  0  0  0  0  0  0
   -0.5165   -5.4824    0.0000 N   0  0  0  0  0  0  0  0  0  0  0  0
  1  2  1  0  0  0  0
  2  3  1  0  0  0  0
  3  4  1  0  0  0  0
  4  5  4  0  0  0  0
  5  6  4  0  0  0  0
  6  7  4  0  0  0  0
  7  8  4  0  0  0  0
  8  9  4  0  0  0  0
  4  9  4  0  0  0  0
  9 10  1  0  0  0  0
  2 10  1  0  0  0  0
 10 11  1  0  0  0  0
 11 12  1  0  0  0  0
 12 13  2  0  0  0  0
 12 14  1  0  0  0  0
 14 15  4  0  0  0  0
 15 16  4  0  0  0  0
 16 17  4  0  0  0  0
 17 18  1  0  0  0  0
 17 19  4  0  0  0  0
 19 20  4  0  0  0  0
 14 20  4  0  0  0  0
 19 21  1  0  0  0  0
 21 22  2  0  0  0  0
 21 23  2  0  0  0  0
 21 24  1  0  0  0  0
M  END

> <ChembankId>
1127

> <SMILES>
CC1Cc2ccccc2N1NC(=O)c3ccc(Cl)c(c3)S(=O)(=O)N

> <InChI>
1/C16H16ClN3O3S/c1-10-8-11-4-2-3-5-14(11)20(10)19-16(21)12-6-7-13(17)15(9-12)24(18,22)23/h2-7,9-10H,8H2,1H3,(H,19,21)(H2,18,22,23)

$$$$
1131
  Marvin  11101114192D          

 20 21  0  0  0  0            999 V2000
   -2.1434   -2.0625    0.0000 N   0  0  0  0  0  0  0  0  0  0  0  0
   -1.4289   -1.6500    0.0000 S   0  0  0  0  0  0  0  0  0  0  0  0
   -1.0164   -2.3645    0.0000 O   0  0  0  0  0  0  0  0  0  0  0  0
   -1.8414   -0.9355    0.0000 O   0  0  0  0  0  0  0  0  0  0  0  0
   -0.7145   -1.2375    0.0000 C   0  0  0  0  0  0  0  0  0  0  0  0
    0.0000   -1.6500    0.0000 C   0  0  0  0  0  0  0  0  0  0  0  0
    0.7145   -1.2375    0.0000 C   0  0  0  0  0  0  0  0  0  0  0  0
    0.7145   -0.4125    0.0000 C   0  0  0  0  0  0  0  0  0  0  0  0
    1.4289   -0.0000    0.0000 N   0  0  0  0  0  0  0  0  0  0  0  0
    2.1434   -0.4125    0.0000 C   0  0  0  0  0  0  0  0  0  0  0  0
    2.1434   -1.2375    0.0000 N   0  0  0  0  0  0  0  0  0  0  0  0
    1.4289   -1.6500    0.0000 S   0  0  0  0  0  0  0  0  0  0  0  0
    1.8163   -2.3784    0.0000 O   0  0  0  0  0  0  0  0  0  0  0  0
    1.0416   -2.3784    0.0000 O   0  0  0  0  0  0  0  0  0  0  0  0
    0.0000   -0.0000    0.0000 C   0  0  0  0  0  0  0  0  0  0  0  0
   -0.7145   -0.4125    0.0000 C   0  0  0  0  0  0  0  0  0  0  0  0
   -1.4289    0.0000    0.0000 C   0  0  0  0  0  0  0  0  0  0  0  0
   -2.1434    0.4125    0.0000 F   0  0  0  0  0  0  0  0  0  0  0  0
   -2.0420   -0.5520    0.0000 F   0  0  0  0  0  0  0  0  0  0  0  0
   -1.0164    0.7145    0.0000 F   0  0  0  0  0  0  0  0  0  0  0  0
  1  2  1  0  0  0  0
  2  3  2  0  0  0  0
  2  4  2  0  0  0  0
  2  5  1  0  0  0  0
  5  6  4  0  0  0  0
  6  7  4  0  0  0  0
  7  8  4  0  0  0  0
  8  9  1  0  0  0  0
  9 10  1  0  0  0  0
 10 11  1  0  0  0  0
 11 12  1  0  0  0  0
  7 12  1  0  0  0  0
 12 13  2  0  0  0  0
 12 14  2  0  0  0  0
  8 15  4  0  0  0  0
 15 16  4  0  0  0  0
  5 16  4  0  0  0  0
 16 17  1  0  0  0  0
 17 18  1  0  0  0  0
 17 19  1  0  0  0  0
 17 20  1  0  0  0  0
M  END

> <ChembankId>
1131

> <SMILES>
NS(=O)(=O)c1cc2c(NCNS2(=O)=O)cc1C(F)(F)F

> <InChI>
1/C8H8F3N3O4S2/c9-8(10,11)4-1-5-7(2-6(4)19(12,15)16)20(17,18)14-3-13-5/h1-2,13-14H,3H2,(H2,12,15,16)

$$$$
1134
  Marvin  11101114192D          

 19 22  0  0  1  0            999 V2000
   -2.2715   -0.9778    0.0000 C   0  0  0  0  0  0  0  0  0  0  0  0
   -1.5575   -1.3911    0.0000 N   0  0  0  0  0  0  0  0  0  0  0  0
   -1.5585   -2.2161    0.0000 C   0  0  0  0  0  0  0  0  0  0  0  0
   -0.8445   -2.6295    0.0000 C   0  0  2  0  0  0  0  0  0  0  0  0
   -0.8455   -3.4545    0.0000 C   0  0  0  0  0  0  0  0  0  0  0  0
   -0.1315   -3.8679    0.0000 O   0  0  0  0  0  0  0  0  0  0  0  0
   -0.1296   -2.2179    0.0000 C   0  0  0  0  0  0  0  0  0  0  0  0
   -0.1286   -1.3929    0.0000 C   0  0  0  0  0  0  0  0  0  0  0  0
   -0.8425   -0.9795    0.0000 C   0  0  1  0  0  0  0  0  0  0  0  0
   -0.8411   -0.1554    0.0000 C   0  0  0  0  0  0  0  0  0  0  0  0
   -0.1286    0.2571    0.0000 C   0  0  0  0  0  0  0  0  0  0  0  0
    0.1714    1.1143    0.0000 C   0  0  0  0  0  0  0  0  0  0  0  0
    0.9964    1.1143    0.0000 N   0  0  0  0  0  0  0  0  0  0  0  0
    1.3018    0.2571    0.0000 C   0  0  0  0  0  0  0  0  0  0  0  0
    2.0143   -0.1554    0.0000 C   0  0  0  0  0  0  0  0  0  0  0  0
    2.0143   -0.9804    0.0000 C   0  0  0  0  0  0  0  0  0  0  0  0
    1.3018   -1.3929    0.0000 C   0  0  0  0  0  0  0  0  0  0  0  0
    0.5839   -0.9804    0.0000 C   0  0  0  0  0  0  0  0  0  0  0  0
    0.5839   -0.1554    0.0000 C   0  0  0  0  0  0  0  0  0  0  0  0
  1  2  1  0  0  0  0
  2  3  1  0  0  0  0
  3  4  1  0  0  0  0
  4  5  1  1  0  0  0
  5  6  1  0  0  0  0
  4  7  1  0  0  0  0
  7  8  2  0  0  0  0
  8  9  1  0  0  0  0
  9  2  1  6  0  0  0
  9 10  1  0  0  0  0
 10 11  1  0  0  0  0
 11 12  4  0  0  0  0
 12 13  4  0  0  0  0
 13 14  4  0  0  0  0
 14 15  4  0  0  0  0
 15 16  4  0  0  0  0
 16 17  4  0  0  0  0
 17 18  4  0  0  0  0
  8 18  1  0  0  0  0
 18 19  4  0  0  0  0
 11 19  4  0  0  0  0
 14 19  4  0  0  0  0
M  STY  1   1 DAT
M  SAL   1  1  13
M  SDT   1 MRV_IMPLICIT_H                                        
M  SDD   1     0.0000    0.0000    DR    ALL  0       0  
M  SED   1 IMPL_H1
M  END

> <ChembankId>
1134

> <SMILES>
CN1C[C@H](CO)C=C2[C@H]1Cc3c[nH]c4cccc2c34

> <InChI>
1/C16H18N2O/c1-18-8-10(9-19)5-13-12-3-2-4-14-16(12)11(7-17-14)6-15(13)18/h2-5,7,10,15,17,19H,6,8-9H2,1H3

$$$$
1135
  Marvin  11101114192D          

 32 34  0  0  0  0            999 V2000
   -5.7158   -7.4250    0.0000 O   0  0  0  0  0  0  0  0  0  0  0  0
   -5.0013   -7.0125    0.0000 C   0  0  0  0  0  0  0  0  0  0  0  0
   -5.0013   -6.1875    0.0000 C   0  0  0  0  0  0  0  0  0  0  0  0
   -4.2868   -5.7750    0.0000 N   0  0  0  0  0  0  0  0  0  0  0  0
   -4.2868   -4.9500    0.0000 C   0  0  0  0  0  0  0  0  0  0  0  0
   -3.5724   -4.5375    0.0000 C   0  0  0  0  0  0  0  0  0  0  0  0
   -3.5724   -3.7125    0.0000 N   0  0  0  0  0  0  0  0  0  0  0  0
   -2.8579   -3.3000    0.0000 C   0  0  0  0  0  0  0  0  0  0  0  0
   -2.8579   -2.4750    0.0000 C   0  0  0  0  0  0  0  0  0  0  0  0
   -2.1434   -2.0625    0.0000 C   0  0  0  0  0  0  0  0  0  0  0  0
   -1.4289   -2.4750    0.0000 C   0  0  0  0  0  0  0  0  0  0  0  0
   -0.7145   -2.0625    0.0000 N   0  0  0  0  0  0  0  0  0  0  0  0
    0.0000   -2.4750    0.0000 C   0  0  0  0  0  0  0  0  0  0  0  0
    0.7145   -2.0625    0.0000 C   0  0  0  0  0  0  0  0  0  0  0  0
    1.4289   -2.4750    0.0000 N   0  0  0  0  0  0  0  0  0  0  0  0
    2.1434   -2.0625    0.0000 C   0  0  0  0  0  0  0  0  0  0  0  0
    2.8579   -2.4750    0.0000 C   0  0  0  0  0  0  0  0  0  0  0  0
    3.5724   -2.0625    0.0000 O   0  0  0  0  0  0  0  0  0  0  0  0
   -1.4289   -3.3000    0.0000 C   0  0  0  0  0  0  0  0  0  0  0  0
   -0.7145   -3.7125    0.0000 C   0  0  0  0  0  0  0  0  0  0  0  0
    0.0000   -3.3000    0.0000 O   0  0  0  0  0  0  0  0  0  0  0  0
   -0.7145   -4.5375    0.0000 C   0  0  0  0  0  0  0  0  0  0  0  0
    0.0000   -4.9500    0.0000 C   0  0  0  0  0  0  0  0  0  0  0  0
    0.7145   -4.5375    0.0000 O   0  0  0  0  0  0  0  0  0  0  0  0
    0.0000   -5.7750    0.0000 C   0  0  0  0  0  0  0  0  0  0  0  0
   -0.7145   -6.1875    0.0000 C   0  0  0  0  0  0  0  0  0  0  0  0
   -1.4289   -5.7750    0.0000 C   0  0  0  0  0  0  0  0  0  0  0  0
   -2.1434   -6.1875    0.0000 O   0  0  0  0  0  0  0  0  0  0  0  0
   -1.4289   -4.9500    0.0000 C   0  0  0  0  0  0  0  0  0  0  0  0
   -2.1434   -4.5375    0.0000 C   0  0  0  0  0  0  0  0  0  0  0  0
   -2.8579   -4.9500    0.0000 O   0  0  0  0  0  0  0  0  0  0  0  0
   -2.1434   -3.7125    0.0000 C   0  0  0  0  0  0  0  0  0  0  0  0
  1  2  1  0  0  0  0
  2  3  1  0  0  0  0
  3  4  1  0  0  0  0
  4  5  1  0  0  0  0
  5  6  1  0  0  0  0
  6  7  1  0  0  0  0
  7  8  1  0  0  0  0
  8  9  4  0  0  0  0
  9 10  4  0  0  0  0
 10 11  4  0  0  0  0
 11 12  1  0  0  0  0
 12 13  1  0  0  0  0
 13 14  1  0  0  0  0
 14 15  1  0  0  0  0
 15 16  1  0  0  0  0
 16 17  1  0  0  0  0
 17 18  1  0  0  0  0
 11 19  4  0  0  0  0
 19 20  1  0  0  0  0
 20 21  2  0  0  0  0
 20 22  1  0  0  0  0
 22 23  4  0  0  0  0
 23 24  1  0  0  0  0
 23 25  4  0  0  0  0
 25 26  4  0  0  0  0
 26 27  4  0  0  0  0
 27 28  1  0  0  0  0
 27 29  4  0  0  0  0
 22 29  4  0  0  0  0
 29 30  1  0  0  0  0
 30 31  2  0  0  0  0
 30 32  1  0  0  0  0
  8 32  4  0  0  0  0
 19 32  4  0  0  0  0
M  END

> <ChembankId>
1135

> <SMILES>
OCCNCCNc1ccc(NCCNCCO)c2C(=O)c3c(O)ccc(O)c3C(=O)c12

> <InChI>
1/C22H28N4O6/c27-11-9-23-5-7-25-13-1-2-14(26-8-6-24-10-12-28)18-17(13)21(31)19-15(29)3-4-16(30)20(19)22(18)32/h1-4,23-30H,5-12H2

$$$$
1138
  Marvin  11101114192D          

 20 21  0  0  0  0            999 V2000
    2.1434   -1.2375    0.0000 C   0  0  0  0  0  0  0  0  0  0  0  0
    1.4289   -1.6500    0.0000 C   0  0  0  0  0  0  0  0  0  0  0  0
    0.7145   -1.2375    0.0000 C   0  0  0  0  0  0  0  0  0  0  0  0
    0.0000   -1.6500    0.0000 C   0  0  0  0  0  0  0  0  0  0  0  0
   -0.7145   -1.2375    0.0000 C   0  0  0  0  0  0  0  0  0  0  0  0
   -1.4289   -1.6500    0.0000 C   0  0  0  0  0  0  0  0  0  0  0  0
    0.0000   -2.4750    0.0000 C   0  0  0  0  0  0  0  0  0  0  0  0
    0.7145   -2.8875    0.0000 C   0  0  0  0  0  0  0  0  0  0  0  0
    0.7145   -3.7125    0.0000 C   0  0  0  0  0  0  0  0  0  0  0  0
    0.0000   -4.1250    0.0000 C   0  0  0  0  0  0  0  0  0  0  0  0
    0.0000   -4.9500    0.0000 O   0  0  0  0  0  0  0  0  0  0  0  0
   -0.7145   -3.7125    0.0000 C   0  0  0  0  0  0  0  0  0  0  0  0
   -0.7145   -2.8875    0.0000 C   0  0  0  0  0  0  0  0  0  0  0  0
    0.7145   -0.4125    0.0000 C   0  0  0  0  0  0  0  0  0  0  0  0
    0.0000    0.0000    0.0000 C   0  0  0  0  0  0  0  0  0  0  0  0
    0.0000    0.8250    0.0000 C   0  0  0  0  0  0  0  0  0  0  0  0
    0.7145    1.2375    0.0000 C   0  0  0  0  0  0  0  0  0  0  0  0
    0.7145    2.0625    0.0000 O   0  0  0  0  0  0  0  0  0  0  0  0
    1.4289    0.8250    0.0000 C   0  0  0  0  0  0  0  0  0  0  0  0
    1.4289   -0.0000    0.0000 C   0  0  0  0  0  0  0  0  0  0  0  0
  1  2  1  0  0  0  0
  2  3  1  0  0  0  0
  3  4  2  0  0  0  0
  4  5  1  0  0  0  0
  5  6  1  0  0  0  0
  4  7  1  0  0  0  0
  7  8  4  0  0  0  0
  8  9  4  0  0  0  0
  9 10  4  0  0  0  0
 10 11  1  0  0  0  0
 10 12  4  0  0  0  0
 12 13  4  0  0  0  0
  7 13  4  0  0  0  0
  3 14  1  0  0  0  0
 14 15  4  0  0  0  0
 15 16  4  0  0  0  0
 16 17  4  0  0  0  0
 17 18  1  0  0  0  0
 17 19  4  0  0  0  0
 19 20  4  0  0  0  0
 14 20  4  0  0  0  0
M  END

> <ChembankId>
1138

> <SMILES>
CC/C(=C(/CC)\c1ccc(O)cc1)/c2ccc(O)cc2

> <InChI>
1/C18H20O2/c1-3-17(13-5-9-15(19)10-6-13)18(4-2)14-7-11-16(20)12-8-14/h5-12,19-20H,3-4H2,1-2H3

$$$$
1142
  Marvin  11101114192D          

 19 20  0  0  1  0            999 V2000
    0.1067    4.7652    0.0000 C   0  0  0  0  0  0  0  0  0  0  0  0
   -0.6078    4.3527    0.0000 C   0  0  0  0  0  0  0  0  0  0  0  0
   -0.6078    3.5277    0.0000 C   0  0  0  0  0  0  0  0  0  0  0  0
   -1.3222    3.1152    0.0000 N   0  0  0  0  0  0  0  0  0  0  0  0
   -1.3222    2.2902    0.0000 C   0  0  1  0  0  0  0  0  0  0  0  0
   -0.6548    1.8053    0.0000 C   0  0  0  0  0  0  0  0  0  0  0  0
   -0.9097    1.0206    0.0000 C   0  0  2  0  0  0  0  0  0  0  0  0
   -0.4248    0.3532    0.0000 N   0  0  0  0  0  0  0  0  0  0  0  0
    0.3957    0.4394    0.0000 N   0  3  0  0  0  0  0  0  0  0  0  0
    1.2161    0.5257    0.0000 N   0  5  0  0  0  0  0  0  0  0  0  0
   -1.7347    1.0206    0.0000 C   0  0  1  0  0  0  0  0  0  0  0  0
   -2.2197    0.3532    0.0000 C   0  0  0  0  0  0  0  0  0  0  0  0
   -3.0401    0.4394    0.0000 O   0  0  0  0  0  0  0  0  0  0  0  0
   -1.9897    1.8053    0.0000 O   0  0  0  0  0  0  0  0  0  0  0  0
   -2.0367    3.5277    0.0000 C   0  0  0  0  0  0  0  0  0  0  0  0
   -2.7512    3.1152    0.0000 O   0  0  0  0  0  0  0  0  0  0  0  0
   -2.0367    4.3527    0.0000 N   0  0  0  0  0  0  0  0  0  0  0  0
   -1.3222    4.7652    0.0000 C   0  0  0  0  0  0  0  0  0  0  0  0
   -1.3222    5.5902    0.0000 O   0  0  0  0  0  0  0  0  0  0  0  0
  1  2  1  0  0  0  0
  2  3  4  0  0  0  0
  3  4  4  0  0  0  0
  5  4  1  1  0  0  0
  5  6  1  0  0  0  0
  6  7  1  0  0  0  0
  7  8  1  6  0  0  0
  8  9  2  0  0  0  0
  9 10  2  0  0  0  0
  7 11  1  0  0  0  0
 11 12  1  1  0  0  0
 12 13  1  0  0  0  0
 11 14  1  0  0  0  0
  5 14  1  0  0  0  0
  4 15  4  0  0  0  0
 15 16  2  0  0  0  0
 15 17  4  0  0  0  0
 17 18  4  0  0  0  0
  2 18  4  0  0  0  0
 18 19  2  0  0  0  0
M  CHG  2   9   1  10  -1
M  STY  1   1 DAT
M  SAL   1  1  17
M  SDT   1 MRV_IMPLICIT_H                                        
M  SDD   1     0.0000    0.0000    DR    ALL  0       0  
M  SED   1 IMPL_H1
M  END

> <ChembankId>
1142

> <SMILES>
Cc1cn([C@H]2C[C@H](N=[N+]=[N-])[C@@H](CO)O2)c(=O)[nH]c1=O

> <InChI>
1/C10H13N5O4/c1-5-3-15(10(18)12-9(5)17)8-2-6(13-14-11)7(4-16)19-8/h3,6-8,16H,2,4H2,1H3,(H,12,17,18)

$$$$
1144
  Marvin  11101114192D          

 19 21  0  0  0  0            999 V2000
   -0.6674   -0.4849    0.0000 O   0  0  0  0  0  0  0  0  0  0  0  0
   -0.0000    0.0000    0.0000 C   0  0  0  0  0  0  0  0  0  0  0  0
   -0.0000    0.8250    0.0000 N   0  0  0  0  0  0  0  0  0  0  0  0
    0.7846    1.0799    0.0000 C   0  0  0  0  0  0  0  0  0  0  0  0
    1.2695    0.4125    0.0000 C   0  0  0  0  0  0  0  0  0  0  0  0
    1.6820    1.1270    0.0000 C   0  0  0  0  0  0  0  0  0  0  0  0
    2.5070    1.1270    0.0000 C   0  0  0  0  0  0  0  0  0  0  0  0
    2.9195    0.4125    0.0000 N   0  0  0  0  0  0  0  0  0  0  0  0
    3.7445    0.4125    0.0000 C   0  0  0  0  0  0  0  0  0  0  0  0
    4.1570    1.1270    0.0000 C   0  0  0  0  0  0  0  0  0  0  0  0
    4.9820    1.1270    0.0000 C   0  0  0  0  0  0  0  0  0  0  0  0
    5.3945    1.8414    0.0000 C   0  0  0  0  0  0  0  0  0  0  0  0
    6.2195    1.8414    0.0000 C   0  0  0  0  0  0  0  0  0  0  0  0
    6.6320    1.1270    0.0000 C   0  0  0  0  0  0  0  0  0  0  0  0
    6.2195    0.4125    0.0000 C   0  0  0  0  0  0  0  0  0  0  0  0
    5.3945    0.4125    0.0000 C   0  0  0  0  0  0  0  0  0  0  0  0
    2.5070   -0.3020    0.0000 C   0  0  0  0  0  0  0  0  0  0  0  0
    1.6820   -0.3020    0.0000 C   0  0  0  0  0  0  0  0  0  0  0  0
    0.7846   -0.2549    0.0000 O   0  0  0  0  0  0  0  0  0  0  0  0
  1  2  2  0  0  0  0
  2  3  1  0  0  0  0
  3  4  1  0  0  0  0
  4  5  1  0  0  0  0
  5  6  1  0  0  0  0
  6  7  1  0  0  0  0
  7  8  1  0  0  0  0
  8  9  1  0  0  0  0
  9 10  1  0  0  0  0
 10 11  1  0  0  0  0
 11 12  4  0  0  0  0
 12 13  4  0  0  0  0
 13 14  4  0  0  0  0
 14 15  4  0  0  0  0
 15 16  4  0  0  0  0
 11 16  4  0  0  0  0
  8 17  1  0  0  0  0
 17 18  1  0  0  0  0
  5 18  1  0  0  0  0
  5 19  1  0  0  0  0
  2 19  1  0  0  0  0
M  END

> <ChembankId>
1144

> <SMILES>
O=C1NCC2(CCN(CCc3ccccc3)CC2)O1

> <InChI>
1/C15H20N2O2/c18-14-16-12-15(19-14)7-10-17(11-8-15)9-6-13-4-2-1-3-5-13/h1-5H,6-12H2,(H,16,18)

$$$$
1146
  Marvin  11101114192D          

 11 11  0  0  0  0            999 V2000
    0.7145   -1.2375    0.0000 N   0  0  0  0  0  0  0  0  0  0  0  0
    0.7145   -0.4125    0.0000 C   0  0  0  0  0  0  0  0  0  0  0  0
   -0.0000    0.0000    0.0000 C   0  0  0  0  0  0  0  0  0  0  0  0
    0.0000    0.8250    0.0000 C   0  0  0  0  0  0  0  0  0  0  0  0
    0.7145    1.2375    0.0000 C   0  0  0  0  0  0  0  0  0  0  0  0
    1.4289    0.8250    0.0000 C   0  0  0  0  0  0  0  0  0  0  0  0
    1.4289    0.0000    0.0000 C   0  0  0  0  0  0  0  0  0  0  0  0
    0.7145    2.0625    0.0000 S   0  0  0  0  0  0  0  0  0  0  0  0
    0.7145    2.8875    0.0000 O   0  0  0  0  0  0  0  0  0  0  0  0
    1.5395    2.0625    0.0000 O   0  0  0  0  0  0  0  0  0  0  0  0
   -0.1105    2.0625    0.0000 N   0  0  0  0  0  0  0  0  0  0  0  0
  1  2  1  0  0  0  0
  2  3  4  0  0  0  0
  3  4  4  0  0  0  0
  4  5  4  0  0  0  0
  5  6  4  0  0  0  0
  6  7  4  0  0  0  0
  2  7  4  0  0  0  0
  5  8  1  0  0  0  0
  8  9  2  0  0  0  0
  8 10  2  0  0  0  0
  8 11  1  0  0  0  0
M  END

> <ChembankId>
1146

> <SMILES>
Nc1ccc(cc1)S(=O)(=O)N

> <InChI>
1/C6H8N2O2S/c7-5-1-3-6(4-2-5)11(8,9)10/h1-4H,7H2,(H2,8,9,10)

$$$$
1151
  Marvin  11101114192D          

 31 32  0  0  0  0            999 V2000
    7.7105    0.4309    0.0000 C   0  0  0  0  0  0  0  0  0  0  0  0
    8.4249    0.8434    0.0000 C   0  0  0  0  0  0  0  0  0  0  0  0
    8.4249    1.6684    0.0000 C   0  0  0  0  0  0  0  0  0  0  0  0
    9.1394    0.4309    0.0000 C   0  0  0  0  0  0  0  0  0  0  0  0
    9.8539    0.8434    0.0000 C   0  0  0  0  0  0  0  0  0  0  0  0
   10.5684    0.4309    0.0000 C   0  0  0  0  0  0  0  0  0  0  0  0
   11.2828    0.8434    0.0000 C   0  0  0  0  0  0  0  0  0  0  0  0
   11.2828    1.6684    0.0000 C   0  0  0  0  0  0  0  0  0  0  0  0
   11.9973    0.4309    0.0000 C   0  0  0  0  0  0  0  0  0  0  0  0
   12.7118    0.8434    0.0000 C   0  0  0  0  0  0  0  0  0  0  0  0
   13.4262    0.4309    0.0000 C   0  0  0  0  0  0  0  0  0  0  0  0
   14.1407    0.8434    0.0000 C   0  0  0  0  0  0  0  0  0  0  0  0
   14.1407    1.6684    0.0000 C   0  0  0  0  0  0  0  0  0  0  0  0
   14.8552    0.4309    0.0000 C   0  0  0  0  0  0  0  0  0  0  0  0
   15.5696    0.8434    0.0000 C   0  0  0  0  0  0  0  0  0  0  0  0
   16.2841    0.4309    0.0000 C   0  0  0  0  0  0  0  0  0  0  0  0
   16.2841   -0.3941    0.0000 C   0  0  0  0  0  0  0  0  0  0  0  0
   15.4717   -0.2509    0.0000 C   0  0  0  0  0  0  0  0  0  0  0  0
   17.0966   -0.2509    0.0000 C   0  0  0  0  0  0  0  0  0  0  0  0
   17.6269   -0.8828    0.0000 C   0  0  0  0  0  0  0  0  0  0  0  0
   17.3447   -1.6581    0.0000 C   0  0  0  0  0  0  0  0  0  0  0  0
   17.8750   -2.2901    0.0000 C   0  0  0  0  0  0  0  0  0  0  0  0
   18.6875   -2.1468    0.0000 C   0  0  0  0  0  0  0  0  0  0  0  0
   17.5929   -3.0653    0.0000 C   0  0  0  0  0  0  0  0  0  0  0  0
   18.1232   -3.6973    0.0000 O   0  0  0  0  0  0  0  0  0  0  0  0
   16.7804   -3.2086    0.0000 C   0  0  0  0  0  0  0  0  0  0  0  0
   16.4982   -3.9838    0.0000 C   0  0  0  0  0  0  0  0  0  0  0  0
   16.2501   -2.5766    0.0000 C   0  0  0  0  0  0  0  0  0  0  0  0
   15.4376   -2.7199    0.0000 C   0  0  0  0  0  0  0  0  0  0  0  0
   16.5323   -1.8013    0.0000 C   0  0  0  0  0  0  0  0  0  0  0  0
   16.0020   -1.1694    0.0000 O   0  0  0  0  0  0  0  0  0  0  0  0
  1  2  1  0  0  0  0
  2  3  1  0  0  0  0
  2  4  1  0  0  0  0
  4  5  1  0  0  0  0
  5  6  1  0  0  0  0
  6  7  1  0  0  0  0
  7  8  1  0  0  0  0
  7  9  1  0  0  0  0
  9 10  1  0  0  0  0
 10 11  1  0  0  0  0
 11 12  1  0  0  0  0
 12 13  1  0  0  0  0
 12 14  1  0  0  0  0
 14 15  1  0  0  0  0
 15 16  1  0  0  0  0
 16 17  1  0  0  0  0
 17 18  1  0  0  0  0
 17 19  1  0  0  0  0
 19 20  1  0  0  0  0
 20 21  1  0  0  0  0
 21 22  4  0  0  0  0
 22 23  1  0  0  0  0
 22 24  4  0  0  0  0
 24 25  1  0  0  0  0
 24 26  4  0  0  0  0
 26 27  1  0  0  0  0
 26 28  4  0  0  0  0
 28 29  1  0  0  0  0
 28 30  4  0  0  0  0
 21 30  4  0  0  0  0
 30 31  1  0  0  0  0
 17 31  1  0  0  0  0
M  END

> <ChembankId>
1151

> <SMILES>
CC(C)CCCC(C)CCCC(C)CCCC1(C)CCc2c(C)c(O)c(C)c(C)c2O1

> <InChI>
1/C29H50O2/c1-20(2)12-9-13-21(3)14-10-15-22(4)16-11-18-29(8)19-17-26-25(7)27(30)23(5)24(6)28(26)31-29/h20-22,30H,9-19H2,1-8H3

$$$$
3055
  Marvin  11101114192D          

 14 14  0  0  0  0            999 V2000
   -3.0610   -1.4494    0.0000 N   0  0  0  0  0  0  0  0  0  0  0  0
   -2.3466   -1.8619    0.0000 C   0  0  0  0  0  0  0  0  0  0  0  0
   -2.3466   -2.6869    0.0000 N   0  0  0  0  0  0  0  0  0  0  0  0
   -1.6321   -1.4494    0.0000 N   0  0  0  0  0  0  0  0  0  0  0  0
   -0.9176   -1.8619    0.0000 C   0  0  0  0  0  0  0  0  0  0  0  0
   -0.2031   -1.4494    0.0000 C   0  0  0  0  0  0  0  0  0  0  0  0
    0.5113   -1.8619    0.0000 N   0  0  0  0  0  0  0  0  0  0  0  0
    1.1658   -1.3596    0.0000 C   0  0  0  0  0  0  0  0  0  0  0  0
    1.9838   -1.4673    0.0000 C   0  0  0  0  0  0  0  0  0  0  0  0
    2.4860   -2.1218    0.0000 C   0  0  0  0  0  0  0  0  0  0  0  0
    2.3783   -2.9398    0.0000 C   0  0  0  0  0  0  0  0  0  0  0  0
    1.7238   -3.4420    0.0000 C   0  0  0  0  0  0  0  0  0  0  0  0
    0.9059   -3.3343    0.0000 C   0  0  0  0  0  0  0  0  0  0  0  0
    0.4036   -2.6798    0.0000 C   0  0  0  0  0  0  0  0  0  0  0  0
  1  2  1  0  0  0  0
  2  3  2  0  0  0  0
  2  4  1  0  0  0  0
  4  5  1  0  0  0  0
  5  6  1  0  0  0  0
  6  7  1  0  0  0  0
  7  8  1  0  0  0  0
  8  9  1  0  0  0  0
  9 10  1  0  0  0  0
 10 11  1  0  0  0  0
 11 12  1  0  0  0  0
 12 13  1  0  0  0  0
 13 14  1  0  0  0  0
  7 14  1  0  0  0  0
M  END

> <ChembankId>
3055

> <SMILES>
NC(=N)NCCN1CCCCCCC1

> <InChI>
1/C10H22N4/c11-10(12)13-6-9-14-7-4-2-1-3-5-8-14/h1-9H2,(H4,11,12,13)

$$$$
1157
  Marvin  11101114192D          

 36 40  0  0  1  0            999 V2000
    5.9609   -8.3337    0.0000 C   0  0  0  0  0  0  0  0  0  0  0  0
    5.1404   -8.4200    0.0000 C   0  0  0  0  0  0  0  0  0  0  0  0
    4.8048   -9.1736    0.0000 O   0  0  0  0  0  0  0  0  0  0  0  0
    4.6555   -7.7525    0.0000 N   0  0  0  0  0  0  0  0  0  0  0  0
    3.8350   -7.8388    0.0000 C   0  0  0  0  0  0  0  0  0  0  0  0
    3.3501   -7.1713    0.0000 C   0  0  0  0  0  0  0  0  0  0  0  0
    3.6856   -6.4177    0.0000 N   0  0  0  0  0  0  0  0  0  0  0  0
    4.5061   -6.3314    0.0000 C   0  0  0  0  0  0  0  0  0  0  0  0
    4.9910   -6.9989    0.0000 C   0  0  0  0  0  0  0  0  0  0  0  0
    3.2007   -5.7502    0.0000 C   0  0  0  0  0  0  0  0  0  0  0  0
    2.3802   -5.8365    0.0000 C   0  0  0  0  0  0  0  0  0  0  0  0
    1.8953   -5.1690    0.0000 C   0  0  0  0  0  0  0  0  0  0  0  0
    2.2308   -4.4153    0.0000 C   0  0  0  0  0  0  0  0  0  0  0  0
    1.7459   -3.7479    0.0000 O   0  0  0  0  0  0  0  0  0  0  0  0
    2.0815   -2.9942    0.0000 C   0  0  0  0  0  0  0  0  0  0  0  0
    1.5966   -2.3268    0.0000 C   0  0  0  0  0  0  0  0  0  0  0  0
    0.7716   -2.3268    0.0000 C   0  0  0  0  0  0  0  0  0  0  0  0
    0.5166   -1.5422    0.0000 O   0  0  0  0  0  0  0  0  0  0  0  0
    1.1841   -1.0572    0.0000 C   0  0  1  0  0  0  0  0  0  0  0  0
    0.6320   -0.4441    0.0000 C   0  0  0  0  0  0  0  0  0  0  0  0
   -0.1749   -0.6157    0.0000 N   0  0  0  0  0  0  0  0  0  0  0  0
   -0.7880   -0.0636    0.0000 C   0  0  0  0  0  0  0  0  0  0  0  0
   -1.5025   -0.4761    0.0000 C   0  0  0  0  0  0  0  0  0  0  0  0
   -1.3310   -1.2831    0.0000 N   0  0  0  0  0  0  0  0  0  0  0  0
   -0.5105   -1.3694    0.0000 C   0  0  0  0  0  0  0  0  0  0  0  0
    1.8515   -1.5422    0.0000 O   0  0  0  0  0  0  0  0  0  0  0  0
    1.7361   -0.4441    0.0000 C   0  0  0  0  0  0  0  0  0  0  0  0
    1.4812    0.3405    0.0000 C   0  0  0  0  0  0  0  0  0  0  0  0
    2.0332    0.9536    0.0000 C   0  0  0  0  0  0  0  0  0  0  0  0
    2.8402    0.7820    0.0000 C   0  0  0  0  0  0  0  0  0  0  0  0
    3.3922    1.3951    0.0000 Cl  0  0  0  0  0  0  0  0  0  0  0  0
    3.0951   -0.0026    0.0000 C   0  0  0  0  0  0  0  0  0  0  0  0
    2.5431   -0.6157    0.0000 C   0  0  0  0  0  0  0  0  0  0  0  0
    2.7980   -1.4003    0.0000 Cl  0  0  0  0  0  0  0  0  0  0  0  0
    3.0513   -4.3291    0.0000 C   0  0  0  0  0  0  0  0  0  0  0  0
    3.5362   -4.9965    0.0000 C   0  0  0  0  0  0  0  0  0  0  0  0
  1  2  1  0  0  0  0
  2  3  2  0  0  0  0
  2  4  1  0  0  0  0
  4  5  1  0  0  0  0
  5  6  1  0  0  0  0
  6  7  1  0  0  0  0
  7  8  1  0  0  0  0
  8  9  1  0  0  0  0
  4  9  1  0  0  0  0
  7 10  1  0  0  0  0
 10 11  4  0  0  0  0
 11 12  4  0  0  0  0
 12 13  4  0  0  0  0
 13 14  1  0  0  0  0
 14 15  1  0  0  0  0
 15 16  1  0  0  0  0
 16 17  1  0  0  0  0
 17 18  1  0  0  0  0
 18 19  1  0  0  0  0
 19 20  1  1  0  0  0
 20 21  1  0  0  0  0
 21 22  4  0  0  0  0
 22 23  4  0  0  0  0
 23 24  4  0  0  0  0
 24 25  4  0  0  0  0
 21 25  4  0  0  0  0
 19 26  1  0  0  0  0
 16 26  1  0  0  0  0
 19 27  1  6  0  0  0
 27 28  4  0  0  0  0
 28 29  4  0  0  0  0
 29 30  4  0  0  0  0
 30 31  1  0  0  0  0
 30 32  4  0  0  0  0
 32 33  4  0  0  0  0
 27 33  4  0  0  0  0
 33 34  1  0  0  0  0
 13 35  4  0  0  0  0
 35 36  4  0  0  0  0
 10 36  4  0  0  0  0
M  END

> <ChembankId>
1157

> <SMILES>
CC(=O)N1CCN(CC1)c2ccc(OCC3CO[C@@](Cn4ccnc4)(O3)c5ccc(Cl)cc5Cl)cc2

> <InChI>
1/C26H28Cl2N4O4/c1-19(33)31-10-12-32(13-11-31)21-3-5-22(6-4-21)34-15-23-16-35-26(36-23,17-30-9-8-29-18-30)24-7-2-20(27)14-25(24)28/h2-9,14,18,23H,10-13,15-17H2,1H3

$$$$
1158
  Marvin  11101114192D          

 20 22  0  0  0  0            999 V2000
    0.7145   -1.2375    0.0000 C   0  0  0  0  0  0  0  0  0  0  0  0
    1.4289   -1.6500    0.0000 C   0  0  0  0  0  0  0  0  0  0  0  0
    1.4289   -2.4750    0.0000 C   0  0  0  0  0  0  0  0  0  0  0  0
    2.1434   -2.8875    0.0000 C   0  0  0  0  0  0  0  0  0  0  0  0
    2.1434   -3.7125    0.0000 C   0  0  0  0  0  0  0  0  0  0  0  0
    1.4289   -4.1250    0.0000 C   0  0  0  0  0  0  0  0  0  0  0  0
    0.7145   -3.7125    0.0000 C   0  0  0  0  0  0  0  0  0  0  0  0
    0.7145   -2.8875    0.0000 C   0  0  0  0  0  0  0  0  0  0  0  0
    2.1434   -1.2375    0.0000 C   0  0  0  0  0  0  0  0  0  0  0  0
    2.1434   -0.4125    0.0000 C   0  0  0  0  0  0  0  0  0  0  0  0
    2.8579   -0.0000    0.0000 C   0  0  0  0  0  0  0  0  0  0  0  0
    3.5724   -0.4125    0.0000 C   0  0  0  0  0  0  0  0  0  0  0  0
    3.5724   -1.2375    0.0000 C   0  0  0  0  0  0  0  0  0  0  0  0
    2.8579   -1.6500    0.0000 C   0  0  0  0  0  0  0  0  0  0  0  0
    0.7145   -0.4125    0.0000 C   0  0  0  0  0  0  0  0  0  0  0  0
    0.0000    0.0000    0.0000 C   0  0  0  0  0  0  0  0  0  0  0  0
    0.0000    0.8250    0.0000 C   0  0  0  0  0  0  0  0  0  0  0  0
    0.7145    1.2375    0.0000 C   0  0  0  0  0  0  0  0  0  0  0  0
    1.4289    0.8250    0.0000 C   0  0  0  0  0  0  0  0  0  0  0  0
    1.4289    0.0000    0.0000 N   0  0  0  0  0  0  0  0  0  0  0  0
  1  2  1  0  0  0  0
  2  3  1  0  0  0  0
  3  4  1  0  0  0  0
  4  5  1  0  0  0  0
  5  6  1  0  0  0  0
  6  7  1  0  0  0  0
  7  8  1  0  0  0  0
  3  8  1  0  0  0  0
  2  9  1  0  0  0  0
  9 10  1  0  0  0  0
 10 11  1  0  0  0  0
 11 12  1  0  0  0  0
 12 13  1  0  0  0  0
 13 14  1  0  0  0  0
  9 14  1  0  0  0  0
  1 15  1  0  0  0  0
 15 16  1  0  0  0  0
 16 17  1  0  0  0  0
 17 18  1  0  0  0  0
 18 19  1  0  0  0  0
 19 20  1  0  0  0  0
 15 20  1  0  0  0  0
M  END

> <ChembankId>
1158

> <SMILES>
C(C(C1CCCCC1)C2CCCCC2)C3CCCCN3

> <InChI>
1/C19H35N/c1-3-9-16(10-4-1)19(17-11-5-2-6-12-17)15-18-13-7-8-14-20-18/h16-20H,1-15H2

$$$$
1159
  Marvin  11101114192D          

 17 18  0  0  0  0            999 V2000
    2.8579   -0.8250    0.0000 N   0  0  0  0  0  0  0  0  0  0  0  0
    2.8579   -1.6500    0.0000 C   0  0  0  0  0  0  0  0  0  0  0  0
    3.5724   -2.0625    0.0000 C   0  0  0  0  0  0  0  0  0  0  0  0
    3.5724   -2.8875    0.0000 C   0  0  0  0  0  0  0  0  0  0  0  0
    2.8579   -3.3000    0.0000 C   0  0  0  0  0  0  0  0  0  0  0  0
    2.1434   -2.8875    0.0000 C   0  0  0  0  0  0  0  0  0  0  0  0
    2.1434   -2.0625    0.0000 C   0  0  0  0  0  0  0  0  0  0  0  0
    2.8579   -4.1250    0.0000 S   0  0  0  0  0  0  0  0  0  0  0  0
    2.0329   -4.1250    0.0000 O   0  0  0  0  0  0  0  0  0  0  0  0
    3.6829   -4.1250    0.0000 O   0  0  0  0  0  0  0  0  0  0  0  0
    2.8579   -4.9500    0.0000 N   0  0  0  0  0  0  0  0  0  0  0  0
    2.1434   -5.3625    0.0000 C   0  0  0  0  0  0  0  0  0  0  0  0
    2.1434   -6.1875    0.0000 N   0  0  0  0  0  0  0  0  0  0  0  0
    1.4289   -6.6000    0.0000 C   0  0  0  0  0  0  0  0  0  0  0  0
    0.7145   -6.1875    0.0000 C   0  0  0  0  0  0  0  0  0  0  0  0
    0.7145   -5.3625    0.0000 C   0  0  0  0  0  0  0  0  0  0  0  0
    1.4289   -4.9500    0.0000 N   0  0  0  0  0  0  0  0  0  0  0  0
  1  2  1  0  0  0  0
  2  3  4  0  0  0  0
  3  4  4  0  0  0  0
  4  5  4  0  0  0  0
  5  6  4  0  0  0  0
  6  7  4  0  0  0  0
  2  7  4  0  0  0  0
  5  8  1  0  0  0  0
  8  9  2  0  0  0  0
  8 10  2  0  0  0  0
  8 11  1  0  0  0  0
 11 12  1  0  0  0  0
 12 13  4  0  0  0  0
 13 14  4  0  0  0  0
 14 15  4  0  0  0  0
 15 16  4  0  0  0  0
 16 17  4  0  0  0  0
 12 17  4  0  0  0  0
M  END

> <ChembankId>
1159

> <SMILES>
Nc1ccc(cc1)S(=O)(=O)Nc2ncccn2

> <InChI>
1/C10H10N4O2S/c11-8-2-4-9(5-3-8)17(15,16)14-10-12-6-1-7-13-10/h1-7H,11H2,(H,12,13,14)

$$$$
1160
  Marvin  11101114192D          

 20 20  0  0  1  0            999 V2000
    0.7145   -4.5375    0.0000 O   0  0  0  0  0  0  0  0  0  0  0  0
    0.0000   -4.1250    0.0000 C   0  0  0  0  0  0  0  0  0  0  0  0
    0.0000   -3.3000    0.0000 C   0  0  1  0  0  0  0  0  0  0  0  0
   -0.7145   -2.8875    0.0000 N   0  0  0  0  0  0  0  0  0  0  0  0
   -1.4289   -3.3000    0.0000 C   0  0  0  0  0  0  0  0  0  0  0  0
   -1.4289   -4.1250    0.0000 O   0  0  0  0  0  0  0  0  0  0  0  0
   -2.1434   -2.8875    0.0000 C   0  0  0  0  0  0  0  0  0  0  0  0
   -2.8579   -3.3000    0.0000 Cl  0  0  0  0  0  0  0  0  0  0  0  0
   -2.1434   -2.0625    0.0000 Cl  0  0  0  0  0  0  0  0  0  0  0  0
    0.7145   -2.8875    0.0000 C   0  0  2  0  0  0  0  0  0  0  0  0
    0.7145   -2.0625    0.0000 O   0  0  0  0  0  0  0  0  0  0  0  0
    1.4289   -3.3000    0.0000 C   0  0  0  0  0  0  0  0  0  0  0  0
    2.1434   -2.8875    0.0000 C   0  0  0  0  0  0  0  0  0  0  0  0
    2.8579   -3.3000    0.0000 C   0  0  0  0  0  0  0  0  0  0  0  0
    2.8579   -4.1250    0.0000 C   0  0  0  0  0  0  0  0  0  0  0  0
    2.1434   -4.5375    0.0000 C   0  0  0  0  0  0  0  0  0  0  0  0
    1.4289   -4.1250    0.0000 C   0  0  0  0  0  0  0  0  0  0  0  0
    3.5724   -4.5375    0.0000 N   0  3  0  0  0  0  0  0  0  0  0  0
    4.2868   -4.1250    0.0000 O   0  0  0  0  0  0  0  0  0  0  0  0
    3.5724   -5.3625    0.0000 O   0  5  0  0  0  0  0  0  0  0  0  0
  1  2  1  0  0  0  0
  2  3  1  0  0  0  0
  3  4  1  1  0  0  0
  4  5  1  0  0  0  0
  5  6  2  0  0  0  0
  5  7  1  0  0  0  0
  7  8  1  0  0  0  0
  7  9  1  0  0  0  0
  3 10  1  0  0  0  0
 10 11  1  6  0  0  0
 10 12  1  0  0  0  0
 12 13  4  0  0  0  0
 13 14  4  0  0  0  0
 14 15  4  0  0  0  0
 15 16  4  0  0  0  0
 16 17  4  0  0  0  0
 12 17  4  0  0  0  0
 15 18  1  0  0  0  0
 18 19  2  0  0  0  0
 18 20  1  0  0  0  0
M  CHG  2  18   1  20  -1
M  END

> <ChembankId>
1160

> <SMILES>
OC[C@@H](NC(=O)C(Cl)Cl)[C@H](O)c1ccc(cc1)[N+](=O)[O-]

> <InChI>
1/C11H12Cl2N2O5/c12-10(13)11(18)14-8(5-16)9(17)6-1-3-7(4-2-6)15(19)20/h1-4,8-10,16-17H,5H2,(H,14,18)

$$$$
1162
  Marvin  11101114192D          

 23 25  0  0  0  0            999 V2000
    0.7145   -0.4125    0.0000 C   0  0  0  0  0  0  0  0  0  0  0  0
    0.7145   -1.2375    0.0000 C   0  0  0  0  0  0  0  0  0  0  0  0
    1.3819   -1.7224    0.0000 C   0  0  0  0  0  0  0  0  0  0  0  0
    2.1665   -1.4675    0.0000 N   0  0  0  0  0  0  0  0  0  0  0  0
    2.3381   -0.6605    0.0000 C   0  0  0  0  0  0  0  0  0  0  0  0
    1.7250   -0.1085    0.0000 O   0  0  0  0  0  0  0  0  0  0  0  0
    3.1227   -0.4056    0.0000 C   0  0  0  0  0  0  0  0  0  0  0  0
    3.2942    0.4014    0.0000 C   0  0  0  0  0  0  0  0  0  0  0  0
    4.0788    0.6563    0.0000 C   0  0  0  0  0  0  0  0  0  0  0  0
    4.6919    0.1043    0.0000 C   0  0  0  0  0  0  0  0  0  0  0  0
    4.5204   -0.7027    0.0000 N   0  0  0  0  0  0  0  0  0  0  0  0
    3.7358   -0.9576    0.0000 C   0  0  0  0  0  0  0  0  0  0  0  0
    1.1270   -2.5070    0.0000 C   0  0  0  0  0  0  0  0  0  0  0  0
    1.6119   -3.1745    0.0000 O   0  0  0  0  0  0  0  0  0  0  0  0
    0.3020   -2.5070    0.0000 N   0  0  0  0  0  0  0  0  0  0  0  0
   -0.1830   -3.1745    0.0000 C   0  0  0  0  0  0  0  0  0  0  0  0
    0.1526   -3.9282    0.0000 C   0  0  0  0  0  0  0  0  0  0  0  0
   -0.3323   -4.5956    0.0000 C   0  0  0  0  0  0  0  0  0  0  0  0
   -1.1528   -4.5094    0.0000 C   0  0  0  0  0  0  0  0  0  0  0  0
   -1.4884   -3.7557    0.0000 C   0  0  0  0  0  0  0  0  0  0  0  0
   -1.0034   -3.0882    0.0000 C   0  0  0  0  0  0  0  0  0  0  0  0
    0.0470   -1.7224    0.0000 N   0  0  0  0  0  0  0  0  0  0  0  0
   -0.7376   -1.4675    0.0000 C   0  0  0  0  0  0  0  0  0  0  0  0
  1  2  1  0  0  0  0
  2  3  4  0  0  0  0
  3  4  1  0  0  0  0
  4  5  1  0  0  0  0
  5  6  2  0  0  0  0
  5  7  1  0  0  0  0
  7  8  4  0  0  0  0
  8  9  4  0  0  0  0
  9 10  4  0  0  0  0
 10 11  4  0  0  0  0
 11 12  4  0  0  0  0
  7 12  4  0  0  0  0
  3 13  4  0  0  0  0
 13 14  2  0  0  0  0
 13 15  4  0  0  0  0
 15 16  1  0  0  0  0
 16 17  4  0  0  0  0
 17 18  4  0  0  0  0
 18 19  4  0  0  0  0
 19 20  4  0  0  0  0
 20 21  4  0  0  0  0
 16 21  4  0  0  0  0
 15 22  4  0  0  0  0
  2 22  4  0  0  0  0
 22 23  1  0  0  0  0
M  END

> <ChembankId>
1162

> <SMILES>
Cc1c(NC(=O)c2cccnc2)c(=O)n(c3ccccc3)n1C

> <InChI>
1/C17H16N4O2/c1-12-15(19-16(22)13-7-6-10-18-11-13)17(23)21(20(12)2)14-8-4-3-5-9-14/h3-11H,1-2H3,(H,19,22)

$$$$
1163
  Marvin  11101114192D          

 25 30  0  0  1  0            999 V2000
    4.4884    3.2171    0.0000 O   0  0  0  0  0  0  0  0  0  0  0  0
    4.1711    2.4556    0.0000 C   0  0  0  0  0  0  0  0  0  0  0  0
    4.6913    1.7996    0.0000 C   0  0  0  0  0  0  0  0  0  0  0  0
    4.3798    1.0340    0.0000 C   0  0  0  0  0  0  0  0  0  0  0  0
    3.5551    0.9477    0.0000 C   0  0  0  0  0  0  0  0  0  0  0  0
    3.2560    0.1990    0.0000 C   0  0  0  0  0  0  0  0  0  0  0  0
    2.4378    0.1885    0.0000 C   0  0  1  0  0  0  0  0  0  0  0  0
    1.8940   -0.3996    0.0000 N   0  0  0  0  0  0  0  0  0  0  0  0
    2.0316   -1.2131    0.0000 C   0  0  0  0  0  0  0  0  0  0  0  0
    1.3960   -1.7390    0.0000 C   0  0  0  0  0  0  0  0  0  0  0  0
    1.1085   -2.5123    0.0000 C   0  0  0  0  0  0  0  0  0  0  0  0
    0.5826   -1.8766    0.0000 C   0  0  0  0  0  0  0  0  0  0  0  0
    1.1727   -0.0156    0.0000 C   0  0  0  0  0  0  0  0  0  0  0  0
    1.3154    0.8718    0.0000 C   0  0  0  0  0  0  0  0  0  0  0  0
    2.1603    1.4705    0.0000 C   0  0  0  0  0  0  0  0  0  0  0  0
    1.9455    2.3020    0.0000 C   0  0  1  0  0  0  0  0  0  0  0  0
    2.6110    2.8048    0.0000 O   0  0  0  0  0  0  0  0  0  0  0  0
    3.3227    2.3612    0.0000 C   0  0  0  0  0  0  0  0  0  0  0  0
    3.0321    1.5936    0.0000 C   0  0  0  0  0  0  0  0  0  0  0  0
    1.8472    0.9739    0.0000 C   0  0  2  0  0  0  0  0  0  0  0  0
    1.4245    0.2654    0.0000 O   0  0  0  0  0  0  0  0  0  0  0  0
    0.8735    1.1209    0.0000 C   0  0  0  0  0  0  0  0  0  0  0  0
    0.5608    1.8619    0.0000 C   0  0  0  0  0  0  0  0  0  0  0  0
    1.1197    2.4624    0.0000 C   0  0  0  0  0  0  0  0  0  0  0  0
    0.8643    3.2468    0.0000 O   0  0  0  0  0  0  0  0  0  0  0  0
  1  2  1  0  0  0  0
  2  3  4  0  0  0  0
  3  4  4  0  0  0  0
  4  5  4  0  0  0  0
  5  6  1  0  0  0  0
  6  7  1  0  0  0  0
  7  8  1  1  0  0  0
  8  9  1  0  0  0  0
  9 10  1  0  0  0  0
 10 11  1  0  0  0  0
 11 12  1  0  0  0  0
 10 12  1  0  0  0  0
  8 13  1  0  0  0  0
 13 14  1  0  0  0  0
 14 15  1  0  0  0  0
 15 16  1  0  0  0  0
 16 17  1  6  0  0  0
 17 18  1  0  0  0  0
  2 18  4  0  0  0  0
 18 19  4  0  0  0  0
  5 19  4  0  0  0  0
 15 19  1  0  0  0  0
 15 20  1  0  0  0  0
  7 20  1  0  0  0  0
 20 21  1  1  0  0  0
 20 22  1  0  0  0  0
 22 23  1  0  0  0  0
 23 24  1  0  0  0  0
 16 24  1  0  0  0  0
 24 25  2  0  0  0  0
M  END

> <ChembankId>
1163

> <SMILES>
Oc1ccc2C[C@H]3N(CC4CC4)CCC5([C@H]6Oc1c25)[C@@]3(O)CCC6=O

> <InChI>
1/C20H23NO4/c22-13-4-3-12-9-15-20(24)6-5-14(23)18-19(20,16(12)17(13)25-18)7-8-21(15)10-11-1-2-11/h3-4,11,15,18,22,24H,1-2,5-10H2

$$$$
1164
  Marvin  11101114192D          

 14 14  0  0  0  0            999 V2000
    2.1434   -2.8875    0.0000 C   0  0  0  0  0  0  0  0  0  0  0  0
    1.4289   -2.4750    0.0000 C   0  0  0  0  0  0  0  0  0  0  0  0
    1.4289   -1.6500    0.0000 N   0  0  0  0  0  0  0  0  0  0  0  0
    2.1434   -1.2375    0.0000 C   0  0  0  0  0  0  0  0  0  0  0  0
    2.1434   -0.4125    0.0000 C   0  0  0  0  0  0  0  0  0  0  0  0
    0.7145   -1.2375    0.0000 C   0  0  0  0  0  0  0  0  0  0  0  0
    0.0000   -1.6500    0.0000 O   0  0  0  0  0  0  0  0  0  0  0  0
    0.7145   -0.4125    0.0000 N   0  0  0  0  0  0  0  0  0  0  0  0
   -0.0000    0.0000    0.0000 C   0  0  0  0  0  0  0  0  0  0  0  0
    0.0000    0.8250    0.0000 C   0  0  0  0  0  0  0  0  0  0  0  0
    0.7145    1.2375    0.0000 N   0  0  0  0  0  0  0  0  0  0  0  0
    0.7145    2.0625    0.0000 C   0  0  0  0  0  0  0  0  0  0  0  0
    1.4289    0.8250    0.0000 C   0  0  0  0  0  0  0  0  0  0  0  0
    1.4289    0.0000    0.0000 C   0  0  0  0  0  0  0  0  0  0  0  0
  1  2  1  0  0  0  0
  2  3  1  0  0  0  0
  3  4  1  0  0  0  0
  4  5  1  0  0  0  0
  3  6  1  0  0  0  0
  6  7  2  0  0  0  0
  6  8  1  0  0  0  0
  8  9  1  0  0  0  0
  9 10  1  0  0  0  0
 10 11  1  0  0  0  0
 11 12  1  0  0  0  0
 11 13  1  0  0  0  0
 13 14  1  0  0  0  0
  8 14  1  0  0  0  0
M  END

> <ChembankId>
1164

> <SMILES>
CCN(CC)C(=O)N1CCN(C)CC1

> <InChI>
1/C10H21N3O/c1-4-12(5-2)10(14)13-8-6-11(3)7-9-13/h4-9H2,1-3H3

$$$$
1169
  Marvin  11101114192D          

 22 25  0  0  1  0            999 V2000
    3.5330   -3.2587    0.0000 C   0  0  0  0  0  0  0  0  0  0  0  0
    3.8928   -2.5163    0.0000 C   0  0  2  0  0  0  0  0  0  0  0  0
    4.4247   -3.1470    0.0000 C   0  0  0  0  0  0  0  0  0  0  0  0
    5.2368   -3.0018    0.0000 C   0  0  0  0  0  0  0  0  0  0  0  0
    5.5171   -2.2259    0.0000 C   0  0  0  0  0  0  0  0  0  0  0  0
    4.9853   -1.5952    0.0000 C   0  0  0  0  0  0  0  0  0  0  0  0
    5.2655   -0.8192    0.0000 C   0  0  0  0  0  0  0  0  0  0  0  0
    6.0777   -0.6740    0.0000 C   0  0  0  0  0  0  0  0  0  0  0  0
    6.6095   -1.3047    0.0000 C   0  0  0  0  0  0  0  0  0  0  0  0
    7.4216   -1.1595    0.0000 C   0  0  0  0  0  0  0  0  0  0  0  0
    7.9534   -1.7902    0.0000 C   0  0  0  0  0  0  0  0  0  0  0  0
    8.7655   -1.6450    0.0000 O   0  0  0  0  0  0  0  0  0  0  0  0
    7.6731   -2.5662    0.0000 C   0  0  0  0  0  0  0  0  0  0  0  0
    6.8610   -2.7114    0.0000 C   0  0  0  0  0  0  0  0  0  0  0  0
    6.3292   -2.0807    0.0000 C   0  0  2  0  0  0  0  0  0  0  0  0
    4.1731   -1.7404    0.0000 C   0  0  0  0  0  0  0  0  0  0  0  0
    3.5218   -1.2340    0.0000 C   0  0  0  0  0  0  0  0  0  0  0  0
    2.8390   -1.6970    0.0000 C   0  0  0  0  0  0  0  0  0  0  0  0
    3.0683   -2.4895    0.0000 C   0  0  2  0  0  0  0  0  0  0  0  0
    2.3074   -2.8084    0.0000 O   0  0  0  0  0  0  0  0  0  0  0  0
    2.9469   -3.3055    0.0000 C   0  0  0  0  0  0  0  0  0  0  0  0
    2.8255   -4.1215    0.0000 C   0  0  0  0  0  0  0  0  0  0  0  0
  2  1  1  1  0  0  0
  2  3  1  0  0  0  0
  3  4  1  0  0  0  0
  4  5  1  0  0  0  0
  5  6  1  0  0  0  0
  6  7  1  0  0  0  0
  7  8  1  0  0  0  0
  8  9  1  0  0  0  0
  9 10  2  0  0  0  0
 10 11  1  0  0  0  0
 11 12  2  0  0  0  0
 11 13  1  0  0  0  0
 13 14  1  0  0  0  0
 14 15  1  0  0  0  0
  5 15  1  0  0  0  0
 15  9  1  6  0  0  0
  6 16  1  0  0  0  0
  2 16  1  0  0  0  0
 16 17  1  0  0  0  0
 17 18  1  0  0  0  0
 18 19  1  0  0  0  0
  2 19  1  0  0  0  0
 19 20  1  1  0  0  0
 19 21  1  6  0  0  0
 21 22  3  0  0  0  0
M  END

> <ChembankId>
1169

> <SMILES>
C[C@@]12CCC3C(CCC4=CC(=O)CC[C@H]34)C2CC[C@@]1(O)C#C

> <InChI>
1/C20H26O2/c1-3-20(22)11-9-18-17-6-4-13-12-14(21)5-7-15(13)16(17)8-10-19(18,20)2/h1,12,15-18,22H,4-11H2,2H3

$$$$
1170
  Marvin  11101114192D          

 35 39  0  0  1  0            999 V2000
    4.3669   -6.5779    0.0000 C   0  0  0  0  0  0  0  0  0  0  0  0
    4.0991   -5.7975    0.0000 C   0  0  0  0  0  0  0  0  0  0  0  0
    3.2895   -5.6392    0.0000 O   0  0  0  0  0  0  0  0  0  0  0  0
    4.6442   -5.1719    0.0000 O   0  0  0  0  0  0  0  0  0  0  0  0
    4.5531   -4.3308    0.0000 C   0  0  0  0  0  0  0  0  0  0  0  0
    5.0929   -3.6215    0.0000 C   0  0  0  0  0  0  0  0  0  0  0  0
    5.5381   -4.3291    0.0000 O   0  0  0  0  0  0  0  0  0  0  0  0
    5.1791   -2.6791    0.0000 C   0  0  1  0  0  0  0  0  0  0  0  0
    4.4669   -3.0956    0.0000 O   0  0  0  0  0  0  0  0  0  0  0  0
    3.8507   -2.5471    0.0000 C   0  0  0  0  0  0  0  0  0  0  0  0
    3.1236   -2.9710    0.0000 C   0  0  0  0  0  0  0  0  0  0  0  0
    3.1007   -2.1214    0.0000 C   0  0  0  0  0  0  0  0  0  0  0  0
    4.1820   -1.7915    0.0000 O   0  0  0  0  0  0  0  0  0  0  0  0
    5.0030   -1.8731    0.0000 C   0  0  2  0  0  0  0  0  0  0  0  0
    5.7151   -1.4566    0.0000 C   0  0  0  0  0  0  0  0  0  0  0  0
    6.3313   -2.0052    0.0000 C   0  0  1  0  0  0  0  0  0  0  0  0
    7.1513   -1.9143    0.0000 C   0  0  0  0  0  0  0  0  0  0  0  0
    7.4826   -1.1588    0.0000 C   0  0  0  0  0  0  0  0  0  0  0  0
    8.3026   -1.0679    0.0000 C   0  0  2  0  0  0  0  0  0  0  0  0
    8.6305   -0.2967    0.0000 F   0  0  0  0  0  0  0  0  0  0  0  0
    8.7913   -1.7326    0.0000 C   0  0  0  0  0  0  0  0  0  0  0  0
    9.6112   -1.6417    0.0000 C   0  0  0  0  0  0  0  0  0  0  0  0
   10.0999   -2.3064    0.0000 C   0  0  0  0  0  0  0  0  0  0  0  0
   10.9337   -2.2870    0.0000 O   0  0  0  0  0  0  0  0  0  0  0  0
    9.7686   -3.0620    0.0000 C   0  0  0  0  0  0  0  0  0  0  0  0
    8.9486   -3.1529    0.0000 C   0  0  0  0  0  0  0  0  0  0  0  0
    8.4600   -2.4882    0.0000 C   0  0  0  0  0  0  0  0  0  0  0  0
    7.7053   -2.2270    0.0000 C   0  0  0  0  0  0  0  0  0  0  0  0
    7.6400   -2.5790    0.0000 C   0  0  2  0  0  0  0  0  0  0  0  0
    8.0984   -3.3425    0.0000 F   0  0  0  0  0  0  0  0  0  0  0  0
    7.3087   -3.3346    0.0000 C   0  0  1  0  0  0  0  0  0  0  0  0
    7.4372   -4.1930    0.0000 O   0  0  0  0  0  0  0  0  0  0  0  0
    6.5063   -3.3101    0.0000 C   0  0  0  0  0  0  0  0  0  0  0  0
    6.0000   -2.7607    0.0000 C   0  0  2  0  0  0  0  0  0  0  0  0
    6.3514   -3.5484    0.0000 C   0  0  0  0  0  0  0  0  0  0  0  0
  1  2  1  0  0  0  0
  2  3  2  0  0  0  0
  2  4  1  0  0  0  0
  4  5  1  0  0  0  0
  5  6  1  0  0  0  0
  6  7  2  0  0  0  0
  8  6  1  1  0  0  0
  8  9  1  0  0  0  0
  9 10  1  0  0  0  0
 10 11  1  0  0  0  0
 10 12  1  0  0  0  0
 10 13  1  0  0  0  0
 13 14  1  0  0  0  0
  8 14  1  0  0  0  0
 14 15  1  6  0  0  0
 16 15  1  1  0  0  0
 16 17  1  0  0  0  0
 17 18  1  0  0  0  0
 18 19  1  0  0  0  0
 19 20  1  6  0  0  0
 19 21  1  0  0  0  0
 21 22  2  0  0  0  0
 22 23  1  0  0  0  0
 23 24  2  0  0  0  0
 23 25  1  0  0  0  0
 25 26  2  0  0  0  0
 26 27  1  0  0  0  0
 21 27  1  0  0  0  0
 27 28  1  0  0  0  0
 27 29  1  0  0  0  0
 17 29  1  0  0  0  0
 29 30  1  6  0  0  0
 29 31  1  0  0  0  0
 31 32  1  1  0  0  0
 31 33  1  0  0  0  0
 33 34  1  0  0  0  0
 16 34  1  0  0  0  0
  8 34  1  0  0  0  0
 34 35  1  1  0  0  0
M  END

> <ChembankId>
1170

> <SMILES>
CC(=O)OCC(=O)[C@]12OC(C)(C)O[C@@H]2C[C@H]3C4C[C@H](F)C5=CC(=O)C=CC5(C)[C@@]4(F)[C@@H](O)C[C@@]31C

> <InChI>
1/C26H32F2O7/c1-13(29)33-12-20(32)26-21(34-22(2,3)35-26)10-15-16-9-18(27)17-8-14(30)6-7-23(17,4)25(16,28)19(31)11-24(15,26)5/h6-8,15-16,18-19,21,31H,9-12H2,1-5H3/t15-,16-,18+,19+,21-,23-,24-,25-,26-/m0/s1

$$$$
1172
  Marvin  11101114192D          

 25 26  0  0  0  0            999 V2000
   -3.4299   -5.1805    0.0000 C   0  0  0  0  0  0  0  0  0  0  0  0
   -2.8579   -5.7750    0.0000 C   0  0  0  0  0  0  0  0  0  0  0  0
   -3.0867   -6.5676    0.0000 C   0  0  0  0  0  0  0  0  0  0  0  0
   -2.0570   -5.5768    0.0000 O   0  0  0  0  0  0  0  0  0  0  0  0
   -1.4850   -6.1713    0.0000 C   0  0  0  0  0  0  0  0  0  0  0  0
   -1.7138   -6.9640    0.0000 O   0  0  0  0  0  0  0  0  0  0  0  0
   -0.6842   -5.9732    0.0000 C   0  0  0  0  0  0  0  0  0  0  0  0
   -0.4860   -6.7740    0.0000 C   0  0  0  0  0  0  0  0  0  0  0  0
   -0.8823   -5.1723    0.0000 C   0  0  0  0  0  0  0  0  0  0  0  0
    0.1167   -5.7750    0.0000 O   0  0  0  0  0  0  0  0  0  0  0  0
    0.6887   -6.3695    0.0000 C   0  0  0  0  0  0  0  0  0  0  0  0
    1.4896   -6.1713    0.0000 C   0  0  0  0  0  0  0  0  0  0  0  0
    2.0616   -6.7658    0.0000 C   0  0  0  0  0  0  0  0  0  0  0  0
    1.8328   -7.5584    0.0000 C   0  0  0  0  0  0  0  0  0  0  0  0
    1.0320   -7.7566    0.0000 C   0  0  0  0  0  0  0  0  0  0  0  0
    0.4599   -7.1621    0.0000 C   0  0  0  0  0  0  0  0  0  0  0  0
    2.4048   -8.1529    0.0000 C   0  0  0  0  0  0  0  0  0  0  0  0
    2.1760   -8.9455    0.0000 O   0  0  0  0  0  0  0  0  0  0  0  0
    3.2057   -7.9547    0.0000 C   0  0  0  0  0  0  0  0  0  0  0  0
    3.4345   -7.1621    0.0000 C   0  0  0  0  0  0  0  0  0  0  0  0
    4.2353   -6.9640    0.0000 C   0  0  0  0  0  0  0  0  0  0  0  0
    4.8074   -7.5584    0.0000 C   0  0  0  0  0  0  0  0  0  0  0  0
    5.6082   -7.3603    0.0000 Cl  0  0  0  0  0  0  0  0  0  0  0  0
    4.5786   -8.3511    0.0000 C   0  0  0  0  0  0  0  0  0  0  0  0
    3.7777   -8.5492    0.0000 C   0  0  0  0  0  0  0  0  0  0  0  0
  1  2  1  0  0  0  0
  2  3  1  0  0  0  0
  2  4  1  0  0  0  0
  4  5  1  0  0  0  0
  5  6  2  0  0  0  0
  5  7  1  0  0  0  0
  7  8  1  0  0  0  0
  7  9  1  0  0  0  0
  7 10  1  0  0  0  0
 10 11  1  0  0  0  0
 11 12  4  0  0  0  0
 12 13  4  0  0  0  0
 13 14  4  0  0  0  0
 14 15  4  0  0  0  0
 15 16  4  0  0  0  0
 11 16  4  0  0  0  0
 14 17  1  0  0  0  0
 17 18  2  0  0  0  0
 17 19  1  0  0  0  0
 19 20  4  0  0  0  0
 20 21  4  0  0  0  0
 21 22  4  0  0  0  0
 22 23  1  0  0  0  0
 22 24  4  0  0  0  0
 24 25  4  0  0  0  0
 19 25  4  0  0  0  0
M  END

> <ChembankId>
1172

> <SMILES>
CC(C)OC(=O)C(C)(C)Oc1ccc(cc1)C(=O)c2ccc(Cl)cc2

> <InChI>
1/C20H21ClO4/c1-13(2)24-19(23)20(3,4)25-17-11-7-15(8-12-17)18(22)14-5-9-16(21)10-6-14/h5-13H,1-4H3

$$$$
1174
  Marvin  11101114192D          

 21 23  0  0  0  0            999 V2000
   -0.5463   -2.6842    0.0000 C   0  0  0  0  0  0  0  0  0  0  0  0
    0.1681   -3.0967    0.0000 N   0  0  0  0  0  0  0  0  0  0  0  0
    0.1681   -3.9217    0.0000 C   0  0  0  0  0  0  0  0  0  0  0  0
    0.8826   -2.6842    0.0000 C   0  0  0  0  0  0  0  0  0  0  0  0
    1.5971   -3.0967    0.0000 C   0  0  0  0  0  0  0  0  0  0  0  0
    2.3116   -2.6842    0.0000 C   0  0  0  0  0  0  0  0  0  0  0  0
    3.0260   -3.0967    0.0000 N   0  0  0  0  0  0  0  0  0  0  0  0
    3.7077   -2.6319    0.0000 C   0  0  0  0  0  0  0  0  0  0  0  0
    3.5241   -1.8276    0.0000 C   0  0  0  0  0  0  0  0  0  0  0  0
    4.1289   -1.2665    0.0000 C   0  0  0  0  0  0  0  0  0  0  0  0
    4.9172   -1.5096    0.0000 C   0  0  0  0  0  0  0  0  0  0  0  0
    5.1008   -2.3139    0.0000 C   0  0  0  0  0  0  0  0  0  0  0  0
    4.4960   -2.8751    0.0000 C   0  0  0  0  0  0  0  0  0  0  0  0
    4.7974   -3.6431    0.0000 C   0  0  0  0  0  0  0  0  0  0  0  0
    4.3849   -4.3575    0.0000 C   0  0  0  0  0  0  0  0  0  0  0  0
    3.5691   -4.4805    0.0000 C   0  0  0  0  0  0  0  0  0  0  0  0
    3.3856   -5.2848    0.0000 C   0  0  0  0  0  0  0  0  0  0  0  0
    2.5972   -5.5280    0.0000 C   0  0  0  0  0  0  0  0  0  0  0  0
    1.9925   -4.9668    0.0000 C   0  0  0  0  0  0  0  0  0  0  0  0
    2.1760   -4.1625    0.0000 C   0  0  0  0  0  0  0  0  0  0  0  0
    2.9644   -3.9193    0.0000 C   0  0  0  0  0  0  0  0  0  0  0  0
  1  2  1  0  0  0  0
  2  3  1  0  0  0  0
  2  4  1  0  0  0  0
  4  5  1  0  0  0  0
  5  6  1  0  0  0  0
  6  7  1  0  0  0  0
  7  8  1  0  0  0  0
  8  9  4  0  0  0  0
  9 10  4  0  0  0  0
 10 11  4  0  0  0  0
 11 12  4  0  0  0  0
 12 13  4  0  0  0  0
  8 13  4  0  0  0  0
 13 14  1  0  0  0  0
 14 15  1  0  0  0  0
 15 16  1  0  0  0  0
 16 17  4  0  0  0  0
 17 18  4  0  0  0  0
 18 19  4  0  0  0  0
 19 20  4  0  0  0  0
 20 21  4  0  0  0  0
  7 21  1  0  0  0  0
 16 21  4  0  0  0  0
M  END

> <ChembankId>
1174

> <SMILES>
CN(C)CCCN1c2ccccc2CCc3ccccc13

> <InChI>
1/C19H24N2/c1-20(2)14-7-15-21-18-10-5-3-8-16(18)12-13-17-9-4-6-11-19(17)21/h3-6,8-11H,7,12-15H2,1-2H3

$$$$
1175
  Marvin  11101114192D          

 16 17  0  0  0  0            999 V2000
   -1.5356    7.2402    0.0000 N   0  0  0  0  0  0  0  0  0  0  0  0
   -0.8212    6.8277    0.0000 C   0  0  0  0  0  0  0  0  0  0  0  0
   -0.1067    7.2402    0.0000 C   0  0  0  0  0  0  0  0  0  0  0  0
    0.6078    6.8277    0.0000 C   0  0  0  0  0  0  0  0  0  0  0  0
    0.6078    6.0027    0.0000 C   0  0  0  0  0  0  0  0  0  0  0  0
   -0.1067    5.5902    0.0000 C   0  0  0  0  0  0  0  0  0  0  0  0
   -0.8212    6.0027    0.0000 C   0  0  0  0  0  0  0  0  0  0  0  0
    1.3222    5.5902    0.0000 S   0  0  0  0  0  0  0  0  0  0  0  0
    0.9097    4.8757    0.0000 O   0  0  0  0  0  0  0  0  0  0  0  0
    1.7347    6.3047    0.0000 O   0  0  0  0  0  0  0  0  0  0  0  0
    2.0367    5.1777    0.0000 N   0  0  0  0  0  0  0  0  0  0  0  0
    2.0367    4.3527    0.0000 C   0  0  0  0  0  0  0  0  0  0  0  0
    2.7041    3.8678    0.0000 N   0  0  0  0  0  0  0  0  0  0  0  0
    2.4492    3.0831    0.0000 C   0  0  0  0  0  0  0  0  0  0  0  0
    1.6242    3.0831    0.0000 C   0  0  0  0  0  0  0  0  0  0  0  0
    1.3693    3.8678    0.0000 S   0  0  0  0  0  0  0  0  0  0  0  0
  1  2  1  0  0  0  0
  2  3  4  0  0  0  0
  3  4  4  0  0  0  0
  4  5  4  0  0  0  0
  5  6  4  0  0  0  0
  6  7  4  0  0  0  0
  2  7  4  0  0  0  0
  5  8  1  0  0  0  0
  8  9  2  0  0  0  0
  8 10  2  0  0  0  0
  8 11  1  0  0  0  0
 11 12  1  0  0  0  0
 12 13  4  0  0  0  0
 13 14  4  0  0  0  0
 14 15  4  0  0  0  0
 15 16  4  0  0  0  0
 12 16  4  0  0  0  0
M  END

> <ChembankId>
1175

> <SMILES>
Nc1ccc(cc1)S(=O)(=O)Nc2nccs2

> <InChI>
1/C9H9N3O2S2/c10-7-1-3-8(4-2-7)16(13,14)12-9-11-5-6-15-9/h1-6H,10H2,(H,11,12)

$$$$
1176
  Marvin  11101114192D          

 14 13  0  0  1  0            999 V2000
   -0.1127   -3.1046    0.0000 C   0  0  0  0  0  0  0  0  0  0  0  0
    0.6974   -2.9487    0.0000 C   0  0  0  0  0  0  0  0  0  0  0  0
    1.2375   -3.5724    0.0000 C   0  0  1  0  0  0  0  0  0  0  0  0
    0.9675   -4.3519    0.0000 C   0  0  0  0  0  0  0  0  0  0  0  0
    0.1573   -4.5078    0.0000 O   0  0  0  0  0  0  0  0  0  0  0  0
    2.0476   -3.4164    0.0000 N   0  0  0  0  0  0  0  0  0  0  0  0
    2.5877   -4.0401    0.0000 C   0  0  0  0  0  0  0  0  0  0  0  0
    3.3979   -3.8842    0.0000 C   0  0  0  0  0  0  0  0  0  0  0  0
    3.9379   -4.5078    0.0000 N   0  0  0  0  0  0  0  0  0  0  0  0
    4.7481   -4.3519    0.0000 C   0  0  1  0  0  0  0  0  0  0  0  0
    5.2882   -4.9755    0.0000 C   0  0  0  0  0  0  0  0  0  0  0  0
    6.0983   -4.8196    0.0000 C   0  0  0  0  0  0  0  0  0  0  0  0
    5.0181   -3.5724    0.0000 C   0  0  0  0  0  0  0  0  0  0  0  0
    5.8283   -3.4164    0.0000 O   0  0  0  0  0  0  0  0  0  0  0  0
  1  2  1  0  0  0  0
  2  3  1  0  0  0  0
  3  4  1  0  0  0  0
  4  5  1  0  0  0  0
  3  6  1  6  0  0  0
  6  7  1  0  0  0  0
  7  8  1  0  0  0  0
  8  9  1  0  0  0  0
 10  9  1  6  0  0  0
 10 11  1  0  0  0  0
 11 12  1  0  0  0  0
 10 13  1  0  0  0  0
 13 14  1  0  0  0  0
M  END

> <ChembankId>
1176

> <SMILES>
CC[C@@H](CO)NCCN[C@@H](CC)CO

> <InChI>
1/C10H24N2O2/c1-3-9(7-13)11-5-6-12-10(4-2)8-14/h9-14H,3-8H2,1-2H3

$$$$
1177
  Marvin  11101114192D          

 18 19  0  0  0  0            999 V2000
    2.1434   -1.2375    0.0000 C   0  0  0  0  0  0  0  0  0  0  0  0
    2.1434   -2.0625    0.0000 C   0  0  0  0  0  0  0  0  0  0  0  0
    2.8579   -2.4750    0.0000 C   0  0  0  0  0  0  0  0  0  0  0  0
    2.8579   -3.3000    0.0000 C   0  0  0  0  0  0  0  0  0  0  0  0
    2.1434   -3.7125    0.0000 N   0  0  0  0  0  0  0  0  0  0  0  0
    1.4289   -3.3000    0.0000 C   0  0  0  0  0  0  0  0  0  0  0  0
    0.7145   -3.7125    0.0000 N   0  0  0  0  0  0  0  0  0  0  0  0
    0.0000   -3.3000    0.0000 S   0  0  0  0  0  0  0  0  0  0  0  0
    0.4125   -2.5855    0.0000 O   0  0  0  0  0  0  0  0  0  0  0  0
   -0.4125   -4.0145    0.0000 O   0  0  0  0  0  0  0  0  0  0  0  0
   -0.7145   -2.8875    0.0000 C   0  0  0  0  0  0  0  0  0  0  0  0
   -1.4289   -3.3000    0.0000 C   0  0  0  0  0  0  0  0  0  0  0  0
   -2.1434   -2.8875    0.0000 C   0  0  0  0  0  0  0  0  0  0  0  0
   -2.1434   -2.0625    0.0000 C   0  0  0  0  0  0  0  0  0  0  0  0
   -2.8579   -1.6500    0.0000 N   0  0  0  0  0  0  0  0  0  0  0  0
   -1.4289   -1.6500    0.0000 C   0  0  0  0  0  0  0  0  0  0  0  0
   -0.7145   -2.0625    0.0000 C   0  0  0  0  0  0  0  0  0  0  0  0
    1.4289   -2.4750    0.0000 N   0  0  0  0  0  0  0  0  0  0  0  0
  1  2  1  0  0  0  0
  2  3  4  0  0  0  0
  3  4  4  0  0  0  0
  4  5  4  0  0  0  0
  5  6  4  0  0  0  0
  6  7  1  0  0  0  0
  7  8  1  0  0  0  0
  8  9  2  0  0  0  0
  8 10  2  0  0  0  0
  8 11  1  0  0  0  0
 11 12  4  0  0  0  0
 12 13  4  0  0  0  0
 13 14  4  0  0  0  0
 14 15  1  0  0  0  0
 14 16  4  0  0  0  0
 16 17  4  0  0  0  0
 11 17  4  0  0  0  0
  6 18  4  0  0  0  0
  2 18  4  0  0  0  0
M  END

> <ChembankId>
1177

> <SMILES>
Cc1ccnc(NS(=O)(=O)c2ccc(N)cc2)n1

> <InChI>
1/C11H12N4O2S/c1-8-6-7-13-11(14-8)15-18(16,17)10-4-2-9(12)3-5-10/h2-7H,12H2,1H3,(H,13,14,15)

$$$$
1179
  Marvin  11101114192D          

 20 23  0  0  1  0            999 V2000
    3.5330   -3.2587    0.0000 C   0  0  0  0  0  0  0  0  0  0  0  0
    3.8928   -2.5163    0.0000 C   0  0  0  0  0  0  0  0  0  0  0  0
    4.4247   -3.1470    0.0000 C   0  0  0  0  0  0  0  0  0  0  0  0
    5.2368   -3.0018    0.0000 C   0  0  0  0  0  0  0  0  0  0  0  0
    5.5171   -2.2259    0.0000 C   0  0  1  0  0  0  0  0  0  0  0  0
    4.9853   -1.5952    0.0000 C   0  0  0  0  0  0  0  0  0  0  0  0
    5.2655   -0.8192    0.0000 C   0  0  0  0  0  0  0  0  0  0  0  0
    6.0777   -0.6740    0.0000 C   0  0  0  0  0  0  0  0  0  0  0  0
    6.6095   -1.3047    0.0000 C   0  0  0  0  0  0  0  0  0  0  0  0
    7.4216   -1.1595    0.0000 C   0  0  0  0  0  0  0  0  0  0  0  0
    7.9534   -1.7902    0.0000 C   0  0  0  0  0  0  0  0  0  0  0  0
    8.7655   -1.6450    0.0000 O   0  0  0  0  0  0  0  0  0  0  0  0
    7.6731   -2.5662    0.0000 C   0  0  0  0  0  0  0  0  0  0  0  0
    6.8610   -2.7114    0.0000 C   0  0  0  0  0  0  0  0  0  0  0  0
    6.3292   -2.0807    0.0000 C   0  0  0  0  0  0  0  0  0  0  0  0
    4.1731   -1.7404    0.0000 C   0  0  2  0  0  0  0  0  0  0  0  0
    3.5218   -1.2340    0.0000 C   0  0  0  0  0  0  0  0  0  0  0  0
    2.8390   -1.6970    0.0000 C   0  0  0  0  0  0  0  0  0  0  0  0
    3.0683   -2.4895    0.0000 C   0  0  0  0  0  0  0  0  0  0  0  0
    2.5619   -3.1408    0.0000 O   0  0  0  0  0  0  0  0  0  0  0  0
  1  2  1  0  0  0  0
  2  3  1  0  0  0  0
  3  4  1  0  0  0  0
  4  5  1  0  0  0  0
  5  6  1  0  0  0  0
  6  7  1  0  0  0  0
  7  8  1  0  0  0  0
  8  9  1  0  0  0  0
  9 10  4  0  0  0  0
 10 11  4  0  0  0  0
 11 12  1  0  0  0  0
 11 13  4  0  0  0  0
 13 14  4  0  0  0  0
 14 15  4  0  0  0  0
  5 15  1  1  0  0  0
  9 15  4  0  0  0  0
  6 16  1  0  0  0  0
  2 16  1  0  0  0  0
 16 17  1  1  0  0  0
 17 18  1  0  0  0  0
 18 19  1  0  0  0  0
  2 19  1  0  0  0  0
 19 20  2  0  0  0  0
M  END

> <ChembankId>
1179

> <SMILES>
CC12CC[C@H]3C(CCc4cc(O)ccc34)[C@@H]2CCC1=O

> <InChI>
1/C18H22O2/c1-18-9-8-14-13-5-3-12(19)10-11(13)2-4-15(14)16(18)6-7-17(18)20/h3,5,10,14-16,19H,2,4,6-9H2,1H3/t14-,15-,16-,18+/m1/s1

$$$$
1180
  Marvin  11101114192D          

 29 32  0  0  0  0            999 V2000
    8.6945    1.8414    0.0000 F   0  0  0  0  0  0  0  0  0  0  0  0
    7.8695    1.8414    0.0000 C   0  0  0  0  0  0  0  0  0  0  0  0
    7.4570    1.1270    0.0000 C   0  0  0  0  0  0  0  0  0  0  0  0
    6.6320    1.1270    0.0000 C   0  0  0  0  0  0  0  0  0  0  0  0
    6.2195    1.8414    0.0000 C   0  0  0  0  0  0  0  0  0  0  0  0
    6.6320    2.5559    0.0000 C   0  0  0  0  0  0  0  0  0  0  0  0
    7.4570    2.5559    0.0000 C   0  0  0  0  0  0  0  0  0  0  0  0
    5.3945    1.8414    0.0000 C   0  0  0  0  0  0  0  0  0  0  0  0
    4.9820    2.5559    0.0000 O   0  0  0  0  0  0  0  0  0  0  0  0
    4.9820    1.1270    0.0000 C   0  0  0  0  0  0  0  0  0  0  0  0
    4.1570    1.1270    0.0000 C   0  0  0  0  0  0  0  0  0  0  0  0
    3.7445    0.4125    0.0000 C   0  0  0  0  0  0  0  0  0  0  0  0
    2.9195    0.4125    0.0000 N   0  0  0  0  0  0  0  0  0  0  0  0
    2.5070   -0.3020    0.0000 C   0  0  0  0  0  0  0  0  0  0  0  0
    1.6820   -0.3020    0.0000 C   0  0  0  0  0  0  0  0  0  0  0  0
    1.2695    0.4125    0.0000 C   0  0  0  0  0  0  0  0  0  0  0  0
    1.6820    1.1270    0.0000 C   0  0  0  0  0  0  0  0  0  0  0  0
    2.5070    1.1270    0.0000 C   0  0  0  0  0  0  0  0  0  0  0  0
    0.7846   -0.2549    0.0000 N   0  0  0  0  0  0  0  0  0  0  0  0
    0.0000   -0.0000    0.0000 C   0  0  0  0  0  0  0  0  0  0  0  0
   -0.0000    0.8250    0.0000 N   0  0  0  0  0  0  0  0  0  0  0  0
    0.7846    1.0799    0.0000 C   0  0  0  0  0  0  0  0  0  0  0  0
    1.0396    1.8646    0.0000 O   0  0  0  0  0  0  0  0  0  0  0  0
    1.0396   -1.0396    0.0000 C   0  0  0  0  0  0  0  0  0  0  0  0
    1.8465   -1.2111    0.0000 C   0  0  0  0  0  0  0  0  0  0  0  0
    2.1015   -1.9957    0.0000 C   0  0  0  0  0  0  0  0  0  0  0  0
    1.5494   -2.6088    0.0000 C   0  0  0  0  0  0  0  0  0  0  0  0
    0.7425   -2.4373    0.0000 C   0  0  0  0  0  0  0  0  0  0  0  0
    0.4875   -1.6527    0.0000 C   0  0  0  0  0  0  0  0  0  0  0  0
  1  2  1  0  0  0  0
  2  3  4  0  0  0  0
  3  4  4  0  0  0  0
  4  5  4  0  0  0  0
  5  6  4  0  0  0  0
  6  7  4  0  0  0  0
  2  7  4  0  0  0  0
  5  8  1  0  0  0  0
  8  9  2  0  0  0  0
  8 10  1  0  0  0  0
 10 11  1  0  0  0  0
 11 12  1  0  0  0  0
 12 13  1  0  0  0  0
 13 14  1  0  0  0  0
 14 15  1  0  0  0  0
 15 16  1  0  0  0  0
 16 17  1  0  0  0  0
 17 18  1  0  0  0  0
 13 18  1  0  0  0  0
 16 19  1  0  0  0  0
 19 20  1  0  0  0  0
 20 21  1  0  0  0  0
 21 22  1  0  0  0  0
 16 22  1  0  0  0  0
 22 23  2  0  0  0  0
 19 24  1  0  0  0  0
 24 25  4  0  0  0  0
 25 26  4  0  0  0  0
 26 27  4  0  0  0  0
 27 28  4  0  0  0  0
 28 29  4  0  0  0  0
 24 29  4  0  0  0  0
M  END

> <ChembankId>
1180

> <SMILES>
Fc1ccc(cc1)C(=O)CCCN2CCC3(CC2)N(CNC3=O)c4ccccc4

> <InChI>
1/C23H26FN3O2/c24-19-10-8-18(9-11-19)21(28)7-4-14-26-15-12-23(13-16-26)22(29)25-17-27(23)20-5-2-1-3-6-20/h1-3,5-6,8-11H,4,7,12-17H2,(H,25,29)

$$$$
1181
  Marvin  11101114192D          

 19 20  0  0  0  0            999 V2000
    3.4656    3.5277    0.0000 C   0  0  0  0  0  0  0  0  0  0  0  0
    4.1801    3.1152    0.0000 C   0  0  0  0  0  0  0  0  0  0  0  0
    4.8946    3.5277    0.0000 C   0  0  0  0  0  0  0  0  0  0  0  0
    5.6091    3.1152    0.0000 C   0  0  0  0  0  0  0  0  0  0  0  0
    5.6091    2.2902    0.0000 C   0  0  0  0  0  0  0  0  0  0  0  0
    6.3235    1.8777    0.0000 O   0  0  0  0  0  0  0  0  0  0  0  0
    4.8946    1.8777    0.0000 C   0  0  0  0  0  0  0  0  0  0  0  0
    4.8946    1.0527    0.0000 C   0  0  0  0  0  0  0  0  0  0  0  0
    4.1801    2.2902    0.0000 C   0  0  0  0  0  0  0  0  0  0  0  0
    3.4656    1.8777    0.0000 C   0  0  0  0  0  0  0  0  0  0  0  0
    3.4656    1.0527    0.0000 C   0  0  0  0  0  0  0  0  0  0  0  0
    4.1331    0.5678    0.0000 N   0  0  0  0  0  0  0  0  0  0  0  0
    3.8781   -0.2169    0.0000 C   0  0  0  0  0  0  0  0  0  0  0  0
    3.0531   -0.2169    0.0000 C   0  0  0  0  0  0  0  0  0  0  0  0
    2.7982    0.5678    0.0000 N   0  0  0  0  0  0  0  0  0  0  0  0
    6.3235    3.5277    0.0000 C   0  0  0  0  0  0  0  0  0  0  0  0
    7.0380    3.9402    0.0000 C   0  0  0  0  0  0  0  0  0  0  0  0
    6.7360    2.8132    0.0000 C   0  0  0  0  0  0  0  0  0  0  0  0
    5.9110    4.2422    0.0000 C   0  0  0  0  0  0  0  0  0  0  0  0
  1  2  1  0  0  0  0
  2  3  4  0  0  0  0
  3  4  4  0  0  0  0
  4  5  4  0  0  0  0
  5  6  1  0  0  0  0
  5  7  4  0  0  0  0
  7  8  1  0  0  0  0
  7  9  4  0  0  0  0
  2  9  4  0  0  0  0
  9 10  1  0  0  0  0
 10 11  1  0  0  0  0
 11 12  2  0  0  0  0
 12 13  1  0  0  0  0
 13 14  1  0  0  0  0
 14 15  1  0  0  0  0
 11 15  1  0  0  0  0
  4 16  1  0  0  0  0
 16 17  1  0  0  0  0
 16 18  1  0  0  0  0
 16 19  1  0  0  0  0
M  END

> <ChembankId>
1181

> <SMILES>
Cc1cc(c(O)c(C)c1CC2=NCCN2)C(C)(C)C

> <InChI>
1/C16H24N2O/c1-10-8-13(16(3,4)5)15(19)11(2)12(10)9-14-17-6-7-18-14/h8,19H,6-7,9H2,1-5H3,(H,17,18)

$$$$
1184
  Marvin  11101114192D          

 23 25  0  0  1  0            999 V2000
    3.2789    2.0625    0.0000 N   0  0  0  0  0  0  0  0  0  0  0  0
    3.2789    1.2375    0.0000 C   0  0  0  0  0  0  0  0  0  0  0  0
    3.9934    0.8250    0.0000 N   0  0  0  0  0  0  0  0  0  0  0  0
    3.9934    0.0000    0.0000 C   0  0  0  0  0  0  0  0  0  0  0  0
    3.2789   -0.4125    0.0000 N   0  0  0  0  0  0  0  0  0  0  0  0
    2.5645    0.0000    0.0000 C   0  0  0  0  0  0  0  0  0  0  0  0
    1.7798   -0.2549    0.0000 N   0  0  0  0  0  0  0  0  0  0  0  0
    1.2949    0.4125    0.0000 C   0  0  0  0  0  0  0  0  0  0  0  0
    1.7798    1.0799    0.0000 N   0  0  0  0  0  0  0  0  0  0  0  0
    2.5645    0.8250    0.0000 C   0  0  0  0  0  0  0  0  0  0  0  0
    1.5249   -1.0396    0.0000 C   0  0  0  0  0  0  0  0  0  0  0  0
    2.0098   -1.7070    0.0000 O   0  0  0  0  0  0  0  0  0  0  0  0
    1.5249   -2.3744    0.0000 C   0  0  2  0  0  0  0  0  0  0  0  0
    1.7798   -3.1591    0.0000 C   0  0  0  0  0  0  0  0  0  0  0  0
    1.2278   -3.7722    0.0000 O   0  0  0  0  0  0  0  0  0  0  0  0
    1.4827   -4.5568    0.0000 P   0  0  0  0  0  0  0  0  0  0  0  0
    1.7377   -5.3414    0.0000 O   0  0  0  0  0  0  0  0  0  0  0  0
    0.6981   -4.8117    0.0000 O   0  0  0  0  0  0  0  0  0  0  0  0
    2.2674   -4.3018    0.0000 O   0  0  0  0  0  0  0  0  0  0  0  0
    0.7403   -2.1195    0.0000 C   0  0  1  0  0  0  0  0  0  0  0  0
    0.0728   -2.6044    0.0000 O   0  0  0  0  0  0  0  0  0  0  0  0
    0.7403   -1.2945    0.0000 C   0  0  1  0  0  0  0  0  0  0  0  0
    0.0728   -0.8096    0.0000 O   0  0  0  0  0  0  0  0  0  0  0  0
  1  2  1  0  0  0  0
  2  3  4  0  0  0  0
  3  4  4  0  0  0  0
  4  5  4  0  0  0  0
  5  6  4  0  0  0  0
  6  7  4  0  0  0  0
  7  8  4  0  0  0  0
  8  9  4  0  0  0  0
  9 10  4  0  0  0  0
  2 10  4  0  0  0  0
  6 10  4  0  0  0  0
  7 11  1  0  0  0  0
 11 12  1  0  0  0  0
 12 13  1  0  0  0  0
 13 14  1  6  0  0  0
 14 15  1  0  0  0  0
 15 16  1  0  0  0  0
 16 17  2  0  0  0  0
 16 18  1  0  0  0  0
 16 19  1  0  0  0  0
 13 20  1  0  0  0  0
 20 21  1  1  0  0  0
 20 22  1  0  0  0  0
 11 22  1  0  0  0  0
 22 23  1  1  0  0  0
M  END

> <ChembankId>
1184

> <SMILES>
Nc1ncnc2n(cnc12)C3O[C@H](COP(=O)(O)O)[C@@H](O)[C@H]3O

> <InChI>
1/C10H14N5O7P/c11-8-5-9(13-2-12-8)15(3-14-5)10-7(17)6(16)4(22-10)1-21-23(18,19)20/h2-4,6-7,10,16-17H,1H2,(H2,11,12,13)(H2,18,19,20)

$$$$
1000126
  Marvin  11101114192D          

 28 31  0  0  1  0            999 V2000
    2.8728   -3.9050    0.0000 C   0  0  0  0  0  0  0  0  0  0  0  0
    2.5619   -3.1408    0.0000 C   0  0  2  0  0  0  0  0  0  0  0  0
    1.7447   -3.0280    0.0000 C   0  0  0  0  0  0  0  0  0  0  0  0
    1.2383   -3.6793    0.0000 C   0  0  0  0  0  0  0  0  0  0  0  0
    0.4211   -3.5665    0.0000 C   0  0  0  0  0  0  0  0  0  0  0  0
   -0.0853   -4.2178    0.0000 O   0  0  0  0  0  0  0  0  0  0  0  0
    0.1102   -2.8023    0.0000 O   0  0  0  0  0  0  0  0  0  0  0  0
    3.0683   -2.4895    0.0000 C   0  0  1  0  0  0  0  0  0  0  0  0
    2.8390   -1.6970    0.0000 C   0  0  0  0  0  0  0  0  0  0  0  0
    3.5218   -1.2340    0.0000 C   0  0  0  0  0  0  0  0  0  0  0  0
    4.1731   -1.7404    0.0000 C   0  0  0  0  0  0  0  0  0  0  0  0
    4.9853   -1.5952    0.0000 C   0  0  0  0  0  0  0  0  0  0  0  0
    5.2655   -0.8192    0.0000 C   0  0  2  0  0  0  0  0  0  0  0  0
    4.7337   -0.1885    0.0000 O   0  0  0  0  0  0  0  0  0  0  0  0
    6.0777   -0.6740    0.0000 C   0  0  0  0  0  0  0  0  0  0  0  0
    6.6095   -1.3047    0.0000 C   0  0  2  0  0  0  0  0  0  0  0  0
    7.4216   -1.1595    0.0000 C   0  0  0  0  0  0  0  0  0  0  0  0
    7.9534   -1.7902    0.0000 C   0  0  2  0  0  0  0  0  0  0  0  0
    8.7655   -1.6450    0.0000 O   0  0  0  0  0  0  0  0  0  0  0  0
    7.6731   -2.5662    0.0000 C   0  0  0  0  0  0  0  0  0  0  0  0
    6.8610   -2.7114    0.0000 C   0  0  0  0  0  0  0  0  0  0  0  0
    6.3292   -2.0807    0.0000 C   0  0  1  0  0  0  0  0  0  0  0  0
    6.0489   -2.8566    0.0000 C   0  0  0  0  0  0  0  0  0  0  0  0
    5.5171   -2.2259    0.0000 C   0  0  0  0  0  0  0  0  0  0  0  0
    5.2368   -3.0018    0.0000 C   0  0  0  0  0  0  0  0  0  0  0  0
    4.4247   -3.1470    0.0000 C   0  0  0  0  0  0  0  0  0  0  0  0
    3.8928   -2.5163    0.0000 C   0  0  2  0  0  0  0  0  0  0  0  0
    3.5330   -3.2587    0.0000 C   0  0  0  0  0  0  0  0  0  0  0  0
  2  1  1  6  0  0  0
  2  3  1  0  0  0  0
  3  4  1  0  0  0  0
  4  5  1  0  0  0  0
  5  6  2  0  0  0  0
  5  7  1  0  0  0  0
  8  2  1  1  0  0  0
  8  9  1  0  0  0  0
  9 10  1  0  0  0  0
 10 11  1  0  0  0  0
 11 12  1  0  0  0  0
 12 13  1  0  0  0  0
 13 14  1  6  0  0  0
 13 15  1  0  0  0  0
 16 15  1  6  0  0  0
 16 17  1  0  0  0  0
 17 18  1  0  0  0  0
 18 19  1  6  0  0  0
 18 20  1  0  0  0  0
 20 21  1  0  0  0  0
 21 22  1  0  0  0  0
 16 22  1  0  0  0  0
 22 23  1  1  0  0  0
 22 24  1  0  0  0  0
 12 24  1  0  0  0  0
 24 25  1  0  0  0  0
 25 26  1  0  0  0  0
 26 27  1  0  0  0  0
  8 27  1  0  0  0  0
 11 27  1  0  0  0  0
 27 28  1  1  0  0  0
M  END

> <ChembankId>
1000126

> <SMILES>
C[C@H](CCC(=O)O)[C@H]1CCC2C3[C@H](O)C[C@@H]4C[C@H](O)CC[C@]4(C)C3CC[C@]12C

> <InChI>
1/C24H40O4/c1-14(4-7-21(27)28)17-5-6-18-22-19(9-11-24(17,18)3)23(2)10-8-16(25)12-15(23)13-20(22)26/h14-20,22,25-26H,4-13H2,1-3H3,(H,27,28)

$$$$
1188
  Marvin  11101114192D          

 21 22  0  0  0  0            999 V2000
   -0.7145   10.0661    0.0000 N   0  0  0  0  0  0  0  0  0  0  0  0
   -0.7145    9.2411    0.0000 S   0  0  0  0  0  0  0  0  0  0  0  0
   -1.5395    9.2411    0.0000 O   0  0  0  0  0  0  0  0  0  0  0  0
    0.1105    9.2411    0.0000 O   0  0  0  0  0  0  0  0  0  0  0  0
   -0.7145    8.4161    0.0000 C   0  0  0  0  0  0  0  0  0  0  0  0
   -0.0000    8.0036    0.0000 C   0  0  0  0  0  0  0  0  0  0  0  0
   -0.0000    7.1786    0.0000 C   0  0  0  0  0  0  0  0  0  0  0  0
    0.7145    6.7661    0.0000 C   0  0  0  0  0  0  0  0  0  0  0  0
    0.7145    5.9411    0.0000 O   0  0  0  0  0  0  0  0  0  0  0  0
    1.4289    7.1786    0.0000 O   0  0  0  0  0  0  0  0  0  0  0  0
   -0.7145    6.7661    0.0000 C   0  0  0  0  0  0  0  0  0  0  0  0
   -0.7145    5.9411    0.0000 N   0  0  0  0  0  0  0  0  0  0  0  0
   -0.0000    5.5286    0.0000 C   0  0  0  0  0  0  0  0  0  0  0  0
   -0.0000    4.7036    0.0000 C   0  0  0  0  0  0  0  0  0  0  0  0
    0.6674    4.2187    0.0000 C   0  0  0  0  0  0  0  0  0  0  0  0
    0.4125    3.4340    0.0000 C   0  0  0  0  0  0  0  0  0  0  0  0
   -0.4125    3.4340    0.0000 C   0  0  0  0  0  0  0  0  0  0  0  0
   -0.6674    4.2187    0.0000 O   0  0  0  0  0  0  0  0  0  0  0  0
   -1.4289    7.1786    0.0000 C   0  0  0  0  0  0  0  0  0  0  0  0
   -1.4289    8.0036    0.0000 C   0  0  0  0  0  0  0  0  0  0  0  0
   -2.1434    8.4161    0.0000 Cl  0  0  0  0  0  0  0  0  0  0  0  0
  1  2  1  0  0  0  0
  2  3  2  0  0  0  0
  2  4  2  0  0  0  0
  2  5  1  0  0  0  0
  5  6  4  0  0  0  0
  6  7  4  0  0  0  0
  7  8  1  0  0  0  0
  8  9  2  0  0  0  0
  8 10  1  0  0  0  0
  7 11  4  0  0  0  0
 11 12  1  0  0  0  0
 12 13  1  0  0  0  0
 13 14  1  0  0  0  0
 14 15  4  0  0  0  0
 15 16  4  0  0  0  0
 16 17  4  0  0  0  0
 17 18  4  0  0  0  0
 14 18  4  0  0  0  0
 11 19  4  0  0  0  0
 19 20  4  0  0  0  0
  5 20  4  0  0  0  0
 20 21  1  0  0  0  0
M  END

> <ChembankId>
1188

> <SMILES>
NS(=O)(=O)c1cc(C(=O)O)c(NCc2ccco2)cc1Cl

> <InChI>
1/C12H11ClN2O5S/c13-9-5-10(15-6-7-2-1-3-20-7)8(12(16)17)4-11(9)21(14,18)19/h1-5,15H,6H2,(H,16,17)(H2,14,18,19)

$$$$
1189
  Marvin  11101114192D          

 28 30  0  0  1  0            999 V2000
    1.5799    1.0865    0.0000 C   0  0  0  0  0  0  0  0  0  0  0  0
    0.8655    0.6740    0.0000 O   0  0  0  0  0  0  0  0  0  0  0  0
    0.8655   -0.1510    0.0000 C   0  0  2  0  0  0  0  0  0  0  0  0
    0.0405   -0.1510    0.0000 N   0  0  0  0  0  0  0  0  0  0  0  0
   -0.3720    0.5635    0.0000 C   0  0  0  0  0  0  0  0  0  0  0  0
   -1.1970    0.5635    0.0000 O   0  0  0  0  0  0  0  0  0  0  0  0
    0.0405    1.2780    0.0000 C   0  0  0  0  0  0  0  0  0  0  0  0
   -0.3720    1.9924    0.0000 C   0  0  0  0  0  0  0  0  0  0  0  0
   -1.1925    2.0787    0.0000 C   0  0  0  0  0  0  0  0  0  0  0  0
   -1.3641    2.8856    0.0000 C   0  0  0  0  0  0  0  0  0  0  0  0
   -0.6496    3.2981    0.0000 C   0  0  0  0  0  0  0  0  0  0  0  0
   -0.0365    2.7461    0.0000 S   0  0  0  0  0  0  0  0  0  0  0  0
    1.6905   -0.1510    0.0000 C   0  0  1  0  0  0  0  0  0  0  0  0
    2.4049    0.2615    0.0000 S   0  0  0  0  0  0  0  0  0  0  0  0
    3.1194   -0.1510    0.0000 C   0  0  0  0  0  0  0  0  0  0  0  0
    3.1194   -0.9760    0.0000 C   0  0  0  0  0  0  0  0  0  0  0  0
    2.4049   -1.3885    0.0000 C   0  0  0  0  0  0  0  0  0  0  0  0
    1.6905   -0.9760    0.0000 N   0  0  0  0  0  0  0  0  0  0  0  0
    0.8655   -0.9760    0.0000 C   0  0  0  0  0  0  0  0  0  0  0  0
    0.2821   -1.5593    0.0000 O   0  0  0  0  0  0  0  0  0  0  0  0
    2.4049   -2.2135    0.0000 C   0  0  0  0  0  0  0  0  0  0  0  0
    1.6905   -2.6260    0.0000 O   0  0  0  0  0  0  0  0  0  0  0  0
    3.1194   -2.6260    0.0000 O   0  0  0  0  0  0  0  0  0  0  0  0
    3.8339   -1.3885    0.0000 C   0  0  0  0  0  0  0  0  0  0  0  0
    4.5483   -0.9760    0.0000 O   0  0  0  0  0  0  0  0  0  0  0  0
    4.5483   -0.1510    0.0000 C   0  0  0  0  0  0  0  0  0  0  0  0
    3.8339    0.2615    0.0000 O   0  0  0  0  0  0  0  0  0  0  0  0
    5.2628    0.2615    0.0000 N   0  0  0  0  0  0  0  0  0  0  0  0
  1  2  1  0  0  0  0
  3  2  1  6  0  0  0
  3  4  1  1  0  0  0
  4  5  1  0  0  0  0
  5  6  2  0  0  0  0
  5  7  1  0  0  0  0
  7  8  1  0  0  0  0
  8  9  4  0  0  0  0
  9 10  4  0  0  0  0
 10 11  4  0  0  0  0
 11 12  4  0  0  0  0
  8 12  4  0  0  0  0
  3 13  1  0  0  0  0
 13 14  1  0  0  0  0
 14 15  1  0  0  0  0
 15 16  1  0  0  0  0
 16 17  2  0  0  0  0
 17 18  1  0  0  0  0
 13 18  1  1  0  0  0
 18 19  1  0  0  0  0
  3 19  1  0  0  0  0
 19 20  2  0  0  0  0
 17 21  1  0  0  0  0
 21 22  2  0  0  0  0
 21 23  1  0  0  0  0
 16 24  1  0  0  0  0
 24 25  1  0  0  0  0
 25 26  1  0  0  0  0
 26 27  2  0  0  0  0
 26 28  1  0  0  0  0
M  END

> <ChembankId>
1189

> <SMILES>
CO[C@]1(NC(=O)Cc2cccs2)[C@H]3SCC(=C(N3C1=O)C(=O)O)COC(=O)N

> <InChI>
1/C16H17N3O7S2/c1-25-16(18-10(20)5-9-3-2-4-27-9)13(23)19-11(12(21)22)8(6-26-15(17)24)7-28-14(16)19/h2-4,14H,5-7H2,1H3,(H2,17,24)(H,18,20)(H,21,22)

$$$$
1190
  Marvin  11101114192D          

 16 18  0  0  0  0            999 V2000
    2.1434    2.0625    0.0000 N   0  0  0  0  0  0  0  0  0  0  0  0
    2.1434    1.2375    0.0000 C   0  0  0  0  0  0  0  0  0  0  0  0
    2.8579    0.8250    0.0000 C   0  0  0  0  0  0  0  0  0  0  0  0
    3.5724    1.2375    0.0000 C   0  0  0  0  0  0  0  0  0  0  0  0
    3.5724    2.0625    0.0000 O   0  0  0  0  0  0  0  0  0  0  0  0
    4.2868    0.8250    0.0000 C   0  0  0  0  0  0  0  0  0  0  0  0
    4.2868   -0.0000    0.0000 C   0  0  0  0  0  0  0  0  0  0  0  0
    3.5724   -0.4125    0.0000 C   0  0  0  0  0  0  0  0  0  0  0  0
    2.8579    0.0000    0.0000 C   0  0  0  0  0  0  0  0  0  0  0  0
    2.1434   -0.4125    0.0000 N   0  0  0  0  0  0  0  0  0  0  0  0
    1.4289    0.0000    0.0000 C   0  0  0  0  0  0  0  0  0  0  0  0
    0.7145   -0.4125    0.0000 C   0  0  0  0  0  0  0  0  0  0  0  0
    0.0000    0.0000    0.0000 C   0  0  0  0  0  0  0  0  0  0  0  0
    0.0000    0.8250    0.0000 C   0  0  0  0  0  0  0  0  0  0  0  0
    0.7145    1.2375    0.0000 C   0  0  0  0  0  0  0  0  0  0  0  0
    1.4289    0.8250    0.0000 C   0  0  0  0  0  0  0  0  0  0  0  0
  1  2  1  0  0  0  0
  2  3  4  0  0  0  0
  3  4  1  0  0  0  0
  4  5  1  0  0  0  0
  4  6  1  0  0  0  0
  6  7  1  0  0  0  0
  7  8  1  0  0  0  0
  8  9  1  0  0  0  0
  3  9  4  0  0  0  0
  9 10  4  0  0  0  0
 10 11  4  0  0  0  0
 11 12  4  0  0  0  0
 12 13  4  0  0  0  0
 13 14  4  0  0  0  0
 14 15  4  0  0  0  0
 15 16  4  0  0  0  0
  2 16  4  0  0  0  0
 11 16  4  0  0  0  0
M  END

> <ChembankId>
1190

> <SMILES>
Nc1c2C(O)CCCc2nc3ccccc13

> <InChI>
1/C13H14N2O/c14-13-8-4-1-2-5-9(8)15-10-6-3-7-11(16)12(10)13/h1-2,4-5,11,16H,3,6-7H2,(H2,14,15)

$$$$
1192
  Marvin  11101114192D          

 18 19  0  0  0  0            999 V2000
    2.0367   -1.2991    0.0000 C   0  0  0  0  0  0  0  0  0  0  0  0
    2.0367   -2.1241    0.0000 C   0  0  0  0  0  0  0  0  0  0  0  0
    2.7041   -2.6090    0.0000 N   0  0  0  0  0  0  0  0  0  0  0  0
    2.4492   -3.3937    0.0000 O   0  0  0  0  0  0  0  0  0  0  0  0
    1.6242   -3.3937    0.0000 C   0  0  0  0  0  0  0  0  0  0  0  0
    1.1393   -4.0611    0.0000 N   0  0  0  0  0  0  0  0  0  0  0  0
    0.3188   -3.9749    0.0000 S   0  0  0  0  0  0  0  0  0  0  0  0
    0.4050   -3.1544    0.0000 O   0  0  0  0  0  0  0  0  0  0  0  0
    0.2326   -4.7953    0.0000 O   0  0  0  0  0  0  0  0  0  0  0  0
   -0.5017   -3.8886    0.0000 C   0  0  0  0  0  0  0  0  0  0  0  0
   -0.9866   -4.5561    0.0000 C   0  0  0  0  0  0  0  0  0  0  0  0
   -1.8071   -4.4698    0.0000 C   0  0  0  0  0  0  0  0  0  0  0  0
   -2.1426   -3.7161    0.0000 C   0  0  0  0  0  0  0  0  0  0  0  0
   -2.9631   -3.6299    0.0000 N   0  0  0  0  0  0  0  0  0  0  0  0
   -1.6577   -3.0487    0.0000 C   0  0  0  0  0  0  0  0  0  0  0  0
   -0.8372   -3.1349    0.0000 C   0  0  0  0  0  0  0  0  0  0  0  0
    1.3693   -2.6090    0.0000 C   0  0  0  0  0  0  0  0  0  0  0  0
    0.5846   -2.3541    0.0000 C   0  0  0  0  0  0  0  0  0  0  0  0
  1  2  1  0  0  0  0
  2  3  4  0  0  0  0
  3  4  4  0  0  0  0
  4  5  4  0  0  0  0
  5  6  1  0  0  0  0
  6  7  1  0  0  0  0
  7  8  2  0  0  0  0
  7  9  2  0  0  0  0
  7 10  1  0  0  0  0
 10 11  4  0  0  0  0
 11 12  4  0  0  0  0
 12 13  4  0  0  0  0
 13 14  1  0  0  0  0
 13 15  4  0  0  0  0
 15 16  4  0  0  0  0
 10 16  4  0  0  0  0
  5 17  4  0  0  0  0
  2 17  4  0  0  0  0
 17 18  1  0  0  0  0
M  END

> <ChembankId>
1192

> <SMILES>
Cc1noc(NS(=O)(=O)c2ccc(N)cc2)c1C

> <InChI>
1/C11H13N3O3S/c1-7-8(2)13-17-11(7)14-18(15,16)10-5-3-9(12)4-6-10/h3-6,14H,12H2,1-2H3

$$$$
1193
  Marvin  11101114192D          

 13 13  0  0  0  0            999 V2000
    1.4289   -2.4750    0.0000 C   0  0  0  0  0  0  0  0  0  0  0  0
    1.4289   -1.6500    0.0000 C   0  0  0  0  0  0  0  0  0  0  0  0
    0.7145   -1.2375    0.0000 O   0  0  0  0  0  0  0  0  0  0  0  0
    0.7145   -0.4125    0.0000 C   0  0  0  0  0  0  0  0  0  0  0  0
   -0.0000    0.0000    0.0000 C   0  0  0  0  0  0  0  0  0  0  0  0
    0.0000    0.8250    0.0000 C   0  0  0  0  0  0  0  0  0  0  0  0
    0.7145    1.2375    0.0000 C   0  0  0  0  0  0  0  0  0  0  0  0
    0.7145    2.0625    0.0000 N   0  0  0  0  0  0  0  0  0  0  0  0
    1.4289    2.4750    0.0000 C   0  0  0  0  0  0  0  0  0  0  0  0
    1.4289    3.3000    0.0000 O   0  0  0  0  0  0  0  0  0  0  0  0
    2.1434    2.0625    0.0000 C   0  0  0  0  0  0  0  0  0  0  0  0
    1.4289    0.8250    0.0000 C   0  0  0  0  0  0  0  0  0  0  0  0
    1.4289    0.0000    0.0000 C   0  0  0  0  0  0  0  0  0  0  0  0
  1  2  1  0  0  0  0
  2  3  1  0  0  0  0
  3  4  1  0  0  0  0
  4  5  4  0  0  0  0
  5  6  4  0  0  0  0
  6  7  4  0  0  0  0
  7  8  1  0  0  0  0
  8  9  1  0  0  0  0
  9 10  2  0  0  0  0
  9 11  1  0  0  0  0
  7 12  4  0  0  0  0
 12 13  4  0  0  0  0
  4 13  4  0  0  0  0
M  END

> <ChembankId>
1193

> <SMILES>
CCOc1ccc(NC(=O)C)cc1

> <InChI>
1/C10H13NO2/c1-3-13-10-6-4-9(5-7-10)11-8(2)12/h4-7H,3H2,1-2H3,(H,11,12)

$$$$
1194
  Marvin  11101114192D          

 14 14  0  0  0  0            999 V2000
    2.9760    1.9462    0.0000 C   0  0  0  0  0  0  0  0  0  0  0  0
    2.1913    1.6913    0.0000 C   0  0  0  0  0  0  0  0  0  0  0  0
    1.5783    2.2433    0.0000 O   0  0  0  0  0  0  0  0  0  0  0  0
    2.0198    0.8843    0.0000 N   0  0  0  0  0  0  0  0  0  0  0  0
    1.2352    0.6294    0.0000 C   0  0  0  0  0  0  0  0  0  0  0  0
    0.9803   -0.1553    0.0000 S   0  0  0  0  0  0  0  0  0  0  0  0
    0.1553   -0.1553    0.0000 C   0  0  0  0  0  0  0  0  0  0  0  0
   -0.0997    0.6294    0.0000 N   0  0  0  0  0  0  0  0  0  0  0  0
    0.5678    1.1143    0.0000 N   0  0  0  0  0  0  0  0  0  0  0  0
    0.5678    1.9393    0.0000 C   0  0  0  0  0  0  0  0  0  0  0  0
   -0.3297   -0.8227    0.0000 S   0  0  0  0  0  0  0  0  0  0  0  0
   -0.8146   -1.4901    0.0000 O   0  0  0  0  0  0  0  0  0  0  0  0
   -0.9971   -0.3378    0.0000 O   0  0  0  0  0  0  0  0  0  0  0  0
    0.3378   -1.3076    0.0000 N   0  0  0  0  0  0  0  0  0  0  0  0
  1  2  1  0  0  0  0
  2  3  2  0  0  0  0
  4  2  1  4  0  0  0
  4  5  2  0  0  0  0
  5  6  4  0  0  0  0
  6  7  4  0  0  0  0
  7  8  4  0  0  0  0
  8  9  4  0  0  0  0
  5  9  4  0  0  0  0
  9 10  1  0  0  0  0
  7 11  1  0  0  0  0
 11 12  2  0  0  0  0
 11 13  2  0  0  0  0
 11 14  1  0  0  0  0
M  END

> <ChembankId>
1194

> <SMILES>
CC(=O)N=c1sc(nn1C)S(=O)(=O)N

> <InChI>
1/C5H8N4O3S2/c1-3(10)7-4-9(2)8-5(13-4)14(6,11)12/h1-2H3,(H2,6,11,12)

$$$$
1196
  Marvin  11101114192D          

 20 22  0  0  0  0            999 V2000
    4.9279    3.5854    0.0000 C   0  0  0  0  0  0  0  0  0  0  0  0
    4.2135    3.1729    0.0000 C   0  0  0  0  0  0  0  0  0  0  0  0
    4.2135    2.3479    0.0000 C   0  0  0  0  0  0  0  0  0  0  0  0
    3.4990    1.9354    0.0000 O   0  0  0  0  0  0  0  0  0  0  0  0
    3.4990    1.1104    0.0000 C   0  0  0  0  0  0  0  0  0  0  0  0
    4.2135    0.6979    0.0000 C   0  0  0  0  0  0  0  0  0  0  0  0
    4.2135   -0.1271    0.0000 C   0  0  0  0  0  0  0  0  0  0  0  0
    3.4990   -0.5396    0.0000 C   0  0  0  0  0  0  0  0  0  0  0  0
    2.7845   -0.1271    0.0000 C   0  0  0  0  0  0  0  0  0  0  0  0
    2.7845    0.6979    0.0000 C   0  0  0  0  0  0  0  0  0  0  0  0
    2.0701    1.1104    0.0000 C   0  0  0  0  0  0  0  0  0  0  0  0
    1.3556    0.6979    0.0000 N   0  0  0  0  0  0  0  0  0  0  0  0
    0.6411    1.1104    0.0000 C   0  0  0  0  0  0  0  0  0  0  0  0
   -0.1435    0.8555    0.0000 N   0  0  0  0  0  0  0  0  0  0  0  0
   -0.6284    1.5229    0.0000 N   0  0  0  0  0  0  0  0  0  0  0  0
   -0.1435    2.1904    0.0000 N   0  0  0  0  0  0  0  0  0  0  0  0
    0.6411    1.9354    0.0000 C   0  0  0  0  0  0  0  0  0  0  0  0
    1.3556    2.3479    0.0000 C   0  0  0  0  0  0  0  0  0  0  0  0
    1.3556    3.1729    0.0000 O   0  0  0  0  0  0  0  0  0  0  0  0
    2.0701    1.9354    0.0000 N   0  0  0  0  0  0  0  0  0  0  0  0
  1  2  1  0  0  0  0
  2  3  1  0  0  0  0
  3  4  1  0  0  0  0
  4  5  1  0  0  0  0
  5  6  4  0  0  0  0
  6  7  4  0  0  0  0
  7  8  4  0  0  0  0
  8  9  4  0  0  0  0
  9 10  4  0  0  0  0
  5 10  4  0  0  0  0
 10 11  1  0  0  0  0
 11 12  4  0  0  0  0
 12 13  4  0  0  0  0
 13 14  4  0  0  0  0
 14 15  4  0  0  0  0
 15 16  4  0  0  0  0
 16 17  4  0  0  0  0
 13 17  4  0  0  0  0
 17 18  4  0  0  0  0
 18 19  2  0  0  0  0
 18 20  4  0  0  0  0
 11 20  4  0  0  0  0
M  STY  2   1 DAT   2 DAT
M  SAL   1  1  14
M  SDT   1 MRV_IMPLICIT_H                                        
M  SDD   1     0.0000    0.0000    DR    ALL  0       0  
M  SED   1 IMPL_H1
M  SAL   2  1  20
M  SDT   2 MRV_IMPLICIT_H                                        
M  SDD   2     0.0000    0.0000    DR    ALL  0       0  
M  SED   2 IMPL_H1
M  END

> <ChembankId>
1196

> <SMILES>
CCCOc1ccccc1c2nc3[nH]nnc3c(=O)[nH]2

> <InChI>
1/C13H13N5O2/c1-2-7-20-9-6-4-3-5-8(9)11-14-12-10(13(19)15-11)16-18-17-12/h3-6H,2,7H2,1H3,(H2,14,15,16,17,18,19)

$$$$
1198
  Marvin  11101114192D          

 19 21  0  0  0  0            999 V2000
    4.9186    1.3325    0.0000 C   0  0  0  0  0  0  0  0  0  0  0  0
    4.7471    2.1394    0.0000 N   0  0  0  0  0  0  0  0  0  0  0  0
    5.2991    2.7525    0.0000 C   0  0  0  0  0  0  0  0  0  0  0  0
    4.8866    3.4670    0.0000 N   0  0  0  0  0  0  0  0  0  0  0  0
    4.0796    3.2955    0.0000 C   0  0  0  0  0  0  0  0  0  0  0  0
    3.4665    3.8475    0.0000 N   0  3  0  0  0  0  0  0  0  0  0  0
    3.6381    4.6545    0.0000 O   0  0  0  0  0  0  0  0  0  0  0  0
    2.6819    3.5926    0.0000 O   0  5  0  0  0  0  0  0  0  0  0  0
    3.9934    2.4750    0.0000 C   0  0  0  0  0  0  0  0  0  0  0  0
    3.2789    2.0625    0.0000 S   0  0  0  0  0  0  0  0  0  0  0  0
    3.2789    1.2375    0.0000 C   0  0  0  0  0  0  0  0  0  0  0  0
    3.9934    0.8250    0.0000 N   0  0  0  0  0  0  0  0  0  0  0  0
    3.9934    0.0000    0.0000 C   0  0  0  0  0  0  0  0  0  0  0  0
    3.2789   -0.4125    0.0000 N   0  0  0  0  0  0  0  0  0  0  0  0
    2.5645    0.0000    0.0000 C   0  0  0  0  0  0  0  0  0  0  0  0
    1.7798   -0.2549    0.0000 N   0  0  0  0  0  0  0  0  0  0  0  0
    1.2949    0.4125    0.0000 C   0  0  0  0  0  0  0  0  0  0  0  0
    1.7798    1.0799    0.0000 N   0  0  0  0  0  0  0  0  0  0  0  0
    2.5645    0.8250    0.0000 C   0  0  0  0  0  0  0  0  0  0  0  0
  1  2  1  0  0  0  0
  2  3  4  0  0  0  0
  3  4  4  0  0  0  0
  4  5  4  0  0  0  0
  5  6  1  0  0  0  0
  6  7  2  0  0  0  0
  6  8  1  0  0  0  0
  5  9  4  0  0  0  0
  2  9  4  0  0  0  0
  9 10  1  0  0  0  0
 10 11  1  0  0  0  0
 11 12  4  0  0  0  0
 12 13  4  0  0  0  0
 13 14  4  0  0  0  0
 14 15  4  0  0  0  0
 15 16  4  0  0  0  0
 16 17  4  0  0  0  0
 17 18  4  0  0  0  0
 18 19  4  0  0  0  0
 11 19  4  0  0  0  0
 15 19  4  0  0  0  0
M  CHG  2   6   1   8  -1
M  STY  1   1 DAT
M  SAL   1  1  12
M  SDT   1 MRV_IMPLICIT_H                                        
M  SDD   1     0.0000    0.0000    DR    ALL  0       0  
M  SED   1 IMPL_H1
M  END

> <ChembankId>
1198

> <SMILES>
Cn1cnc([N+](=O)[O-])c1Sc2[nH]cnc3ncnc23

> <InChI>
1/C9H7N7O2S/c1-15-4-14-7(16(17)18)9(15)19-8-5-6(11-2-10-5)12-3-13-8/h2-4H,1H3,(H,10,11,12,13)

$$$$
1200
  Marvin  11101114192D          

 10 11  0  0  1  0            999 V2000
    0.7145   -0.4125    0.0000 N   0  0  0  0  0  0  0  0  0  0  0  0
    0.7145   -1.2375    0.0000 C   0  0  0  0  0  0  0  0  0  0  0  0
    1.1270   -1.9520    0.0000 C   0  0  0  0  0  0  0  0  0  0  0  0
    0.3020   -1.9520    0.0000 C   0  0  1  0  0  0  0  0  0  0  0  0
   -0.4125   -2.3645    0.0000 C   0  0  0  0  0  0  0  0  0  0  0  0
   -0.4125   -3.1895    0.0000 C   0  0  0  0  0  0  0  0  0  0  0  0
   -1.1270   -3.6020    0.0000 C   0  0  0  0  0  0  0  0  0  0  0  0
   -1.8414   -3.1895    0.0000 C   0  0  0  0  0  0  0  0  0  0  0  0
   -1.8414   -2.3645    0.0000 C   0  0  0  0  0  0  0  0  0  0  0  0
   -1.1270   -1.9520    0.0000 C   0  0  0  0  0  0  0  0  0  0  0  0
  1  2  1  0  0  0  0
  2  3  1  0  0  0  0
  3  4  1  0  0  0  0
  2  4  1  0  0  0  0
  4  5  1  1  0  0  0
  5  6  4  0  0  0  0
  6  7  4  0  0  0  0
  7  8  4  0  0  0  0
  8  9  4  0  0  0  0
  9 10  4  0  0  0  0
  5 10  4  0  0  0  0
M  END

> <ChembankId>
1200

> <SMILES>
NC1C[C@H]1c2ccccc2

> <InChI>
1/C9H11N/c10-9-6-8(9)7-4-2-1-3-5-7/h1-5,8-9H,6,10H2

$$$$
1201
  Marvin  11101114192D          

 21 22  0  0  0  0            999 V2000
    1.4289    0.0000    0.0000 C   0  0  0  0  0  0  0  0  0  0  0  0
    2.1434   -0.4125    0.0000 O   0  0  0  0  0  0  0  0  0  0  0  0
    2.1434   -1.2375    0.0000 C   0  0  0  0  0  0  0  0  0  0  0  0
    2.8579   -1.6500    0.0000 C   0  0  0  0  0  0  0  0  0  0  0  0
    2.8579   -2.4750    0.0000 C   0  0  0  0  0  0  0  0  0  0  0  0
    3.5724   -2.8875    0.0000 C   0  0  0  0  0  0  0  0  0  0  0  0
    3.5724   -3.7125    0.0000 C   0  0  0  0  0  0  0  0  0  0  0  0
    4.2868   -4.1250    0.0000 C   0  0  0  0  0  0  0  0  0  0  0  0
    4.2868   -4.9500    0.0000 N   0  0  0  0  0  0  0  0  0  0  0  0
    3.5724   -5.3625    0.0000 C   0  0  0  0  0  0  0  0  0  0  0  0
    3.5724   -6.1875    0.0000 N   0  0  0  0  0  0  0  0  0  0  0  0
    2.8579   -4.9500    0.0000 N   0  0  0  0  0  0  0  0  0  0  0  0
    2.8579   -4.1250    0.0000 C   0  0  0  0  0  0  0  0  0  0  0  0
    2.1434   -3.7125    0.0000 N   0  0  0  0  0  0  0  0  0  0  0  0
    2.1434   -2.8875    0.0000 C   0  0  0  0  0  0  0  0  0  0  0  0
    1.4289   -2.4750    0.0000 C   0  0  0  0  0  0  0  0  0  0  0  0
    0.7145   -2.8875    0.0000 O   0  0  0  0  0  0  0  0  0  0  0  0
    0.0000   -2.4750    0.0000 C   0  0  0  0  0  0  0  0  0  0  0  0
    1.4289   -1.6500    0.0000 C   0  0  0  0  0  0  0  0  0  0  0  0
    0.7145   -1.2375    0.0000 O   0  0  0  0  0  0  0  0  0  0  0  0
    0.0000   -1.6500    0.0000 C   0  0  0  0  0  0  0  0  0  0  0  0
  1  2  1  0  0  0  0
  2  3  1  0  0  0  0
  3  4  4  0  0  0  0
  4  5  4  0  0  0  0
  5  6  1  0  0  0  0
  6  7  1  0  0  0  0
  7  8  4  0  0  0  0
  8  9  4  0  0  0  0
  9 10  4  0  0  0  0
 10 11  1  0  0  0  0
 10 12  4  0  0  0  0
 12 13  4  0  0  0  0
  7 13  4  0  0  0  0
 13 14  1  0  0  0  0
  5 15  4  0  0  0  0
 15 16  4  0  0  0  0
 16 17  1  0  0  0  0
 17 18  1  0  0  0  0
 16 19  4  0  0  0  0
  3 19  4  0  0  0  0
 19 20  1  0  0  0  0
 20 21  1  0  0  0  0
M  END

> <ChembankId>
1201

> <SMILES>
COc1cc(Cc2cnc(N)nc2N)cc(OC)c1OC

> <InChI>
1/C14H18N4O3/c1-19-10-5-8(6-11(20-2)12(10)21-3)4-9-7-17-14(16)18-13(9)15/h5-7H,4H2,1-3H3,(H4,15,16,17,18)

$$$$
1202
  Marvin  11101114192D          

 21 24  0  0  1  0            999 V2000
    1.6464   -1.0296    0.0000 C   0  0  0  0  0  0  0  0  0  0  0  0
    1.0930   -0.4177    0.0000 O   0  0  0  0  0  0  0  0  0  0  0  0
    1.3462    0.3675    0.0000 C   0  0  0  0  0  0  0  0  0  0  0  0
    0.7929    0.9793    0.0000 C   0  0  0  0  0  0  0  0  0  0  0  0
    1.0461    1.7645    0.0000 C   0  0  0  0  0  0  0  0  0  0  0  0
    1.8903    1.9698    0.0000 C   0  0  0  0  0  0  0  0  0  0  0  0
    1.9598    2.7694    0.0000 C   0  0  0  0  0  0  0  0  0  0  0  0
    2.4806    3.4230    0.0000 N   0  0  0  0  0  0  0  0  0  0  0  0
    2.3019    4.2284    0.0000 C   0  0  0  0  0  0  0  0  0  0  0  0
    3.2363    3.0474    0.0000 C   0  0  0  0  0  0  0  0  0  0  0  0
    3.1140    2.1983    0.0000 C   0  0  0  0  0  0  0  0  0  0  0  0
    3.2310    1.3277    0.0000 C   0  0  1  0  0  0  0  0  0  0  0  0
    3.7817    1.9420    0.0000 C   0  0  0  0  0  0  0  0  0  0  0  0
    4.5891    1.7723    0.0000 C   0  0  0  0  0  0  0  0  0  0  0  0
    4.8457    0.9882    0.0000 C   0  0  2  0  0  0  0  0  0  0  0  0
    5.6531    0.8184    0.0000 O   0  0  0  0  0  0  0  0  0  0  0  0
    4.2950    0.3739    0.0000 C   0  0  0  0  0  0  0  0  0  0  0  0
    3.4877    0.5437    0.0000 C   0  0  2  0  0  0  0  0  0  0  0  0
    2.8213    0.0573    0.0000 O   0  0  0  0  0  0  0  0  0  0  0  0
    2.1528    0.5408    0.0000 C   0  0  0  0  0  0  0  0  0  0  0  0
    2.4060    1.3259    0.0000 C   0  0  0  0  0  0  0  0  0  0  0  0
  1  2  1  0  0  0  0
  2  3  1  0  0  0  0
  3  4  4  0  0  0  0
  4  5  4  0  0  0  0
  5  6  4  0  0  0  0
  6  7  1  0  0  0  0
  7  8  1  0  0  0  0
  8  9  1  0  0  0  0
  8 10  1  0  0  0  0
 10 11  1  0  0  0  0
 11 12  1  0  0  0  0
 12 13  1  0  0  0  0
 13 14  2  0  0  0  0
 14 15  1  0  0  0  0
 15 16  1  6  0  0  0
 15 17  1  0  0  0  0
 18 17  1  6  0  0  0
 12 18  1  0  0  0  0
 18 19  1  0  0  0  0
 19 20  1  0  0  0  0
  3 20  4  0  0  0  0
 20 21  4  0  0  0  0
  6 21  4  0  0  0  0
 12 21  1  6  0  0  0
M  END

> <ChembankId>
1202

> <SMILES>
COc1ccc2CN(C)CC[C@]34C=C[C@H](O)C[C@@H]4Oc1c23

> <InChI>
1/C17H21NO3/c1-18-8-7-17-6-5-12(19)9-14(17)21-16-13(20-2)4-3-11(10-18)15(16)17/h3-6,12,14,19H,7-10H2,1-2H3

$$$$
1203
  Marvin  11101114192D          

 32 35  0  0  1  0            999 V2000
    2.1434   -1.2375    0.0000 C   0  0  0  0  0  0  0  0  0  0  0  0
    2.8579   -1.6500    0.0000 N   0  0  0  0  0  0  0  0  0  0  0  0
    3.5724   -1.2375    0.0000 C   0  0  0  0  0  0  0  0  0  0  0  0
    2.8579   -2.4750    0.0000 C   0  0  1  0  0  0  0  0  0  0  0  0
    3.5724   -2.8875    0.0000 C   0  0  0  0  0  0  0  0  0  0  0  0
    4.2868   -2.4750    0.0000 C   0  0  1  0  0  0  0  0  0  0  0  0
    4.2868   -1.6500    0.0000 O   0  0  0  0  0  0  0  0  0  0  0  0
    5.0013   -2.8875    0.0000 C   0  0  2  0  0  0  0  0  0  0  0  0
    5.7158   -2.4750    0.0000 C   0  0  0  0  0  0  0  0  0  0  0  0
    5.7158   -1.6500    0.0000 C   0  0  0  0  0  0  0  0  0  0  0  0
    6.4302   -2.8875    0.0000 C   0  0  0  0  0  0  0  0  0  0  0  0
    7.1447   -2.4750    0.0000 C   0  0  0  0  0  0  0  0  0  0  0  0
    7.8592   -2.8875    0.0000 C   0  0  0  0  0  0  0  0  0  0  0  0
    7.8592   -3.7125    0.0000 C   0  0  0  0  0  0  0  0  0  0  0  0
    7.1447   -4.1250    0.0000 C   0  0  0  0  0  0  0  0  0  0  0  0
    7.1447   -4.9500    0.0000 O   0  0  0  0  0  0  0  0  0  0  0  0
    6.4302   -3.7125    0.0000 C   0  0  0  0  0  0  0  0  0  0  0  0
    5.7158   -4.1250    0.0000 C   0  0  0  0  0  0  0  0  0  0  0  0
    5.7158   -4.9500    0.0000 O   0  0  0  0  0  0  0  0  0  0  0  0
    5.0013   -3.7125    0.0000 C   0  0  0  0  0  0  0  0  0  0  0  0
    4.2868   -4.1250    0.0000 C   0  0  0  0  0  0  0  0  0  0  0  0
    4.2868   -4.9500    0.0000 O   0  0  0  0  0  0  0  0  0  0  0  0
    3.5724   -3.7125    0.0000 C   0  0  1  0  0  0  0  0  0  0  0  0
    3.5724   -4.5375    0.0000 O   0  0  0  0  0  0  0  0  0  0  0  0
    2.8579   -4.1250    0.0000 C   0  0  0  0  0  0  0  0  0  0  0  0
    2.8579   -4.9500    0.0000 O   0  0  0  0  0  0  0  0  0  0  0  0
    2.1434   -3.7125    0.0000 C   0  0  0  0  0  0  0  0  0  0  0  0
    2.1434   -2.8875    0.0000 C   0  0  0  0  0  0  0  0  0  0  0  0
    1.4289   -2.4750    0.0000 O   0  0  0  0  0  0  0  0  0  0  0  0
    1.4289   -4.1250    0.0000 C   0  0  0  0  0  0  0  0  0  0  0  0
    1.4289   -4.9500    0.0000 O   0  0  0  0  0  0  0  0  0  0  0  0
    0.7145   -3.7125    0.0000 N   0  0  0  0  0  0  0  0  0  0  0  0
  1  2  1  0  0  0  0
  2  3  1  0  0  0  0
  4  2  1  1  0  0  0
  4  5  1  0  0  0  0
  5  6  1  0  0  0  0
  6  7  1  1  0  0  0
  6  8  1  0  0  0  0
  8  9  1  0  0  0  0
  9 10  2  0  0  0  0
  9 11  1  0  0  0  0
 11 12  4  0  0  0  0
 12 13  4  0  0  0  0
 13 14  4  0  0  0  0
 14 15  4  0  0  0  0
 15 16  1  0  0  0  0
 15 17  4  0  0  0  0
 11 17  4  0  0  0  0
 17 18  1  0  0  0  0
 18 19  2  0  0  0  0
 18 20  1  0  0  0  0
  8 20  1  6  0  0  0
 20 21  2  0  0  0  0
 21 22  1  0  0  0  0
 21 23  1  0  0  0  0
  5 23  1  0  0  0  0
 23 24  1  1  0  0  0
 23 25  1  0  0  0  0
 25 26  2  0  0  0  0
 25 27  1  0  0  0  0
 27 28  2  0  0  0  0
  4 28  1  0  0  0  0
 28 29  1  0  0  0  0
 27 30  1  0  0  0  0
 30 31  2  0  0  0  0
 30 32  1  0  0  0  0
M  END

> <ChembankId>
1203

> <SMILES>
CN(C)[C@H]1[C@@H]2[C@@H](O)[C@@H]3C(=C)c4cccc(O)c4C(=O)C3=C(O)[C@]2(O)C(=O)C(=C1O)C(=O)N

> <InChI>
1/C22H22N2O8/c1-7-8-5-4-6-9(25)11(8)16(26)12-10(7)17(27)14-15(24(2)3)18(28)13(21(23)31)20(30)22(14,32)19(12)29/h4-6,10,14-15,17,25,27-29,32H,1H2,2-3H3,(H2,23,31)

$$$$
1204
  Marvin  11101114192D          

 43 50  0  0  1  0            999 V2000
   -2.2715   -0.9778    0.0000 C   0  0  0  0  0  0  0  0  0  0  0  0
   -1.5575   -1.3911    0.0000 N   0  0  0  0  0  0  0  0  0  0  0  0
   -1.5585   -2.2161    0.0000 C   0  0  0  0  0  0  0  0  0  0  0  0
   -0.8445   -2.6295    0.0000 C   0  0  1  0  0  0  0  0  0  0  0  0
   -0.1296   -2.2179    0.0000 C   0  0  0  0  0  0  0  0  0  0  0  0
   -0.1286   -1.3929    0.0000 C   0  0  1  0  0  0  0  0  0  0  0  0
   -0.8425   -0.9795    0.0000 C   0  0  1  0  0  0  0  0  0  0  0  0
   -0.8411   -0.1554    0.0000 C   0  0  0  0  0  0  0  0  0  0  0  0
   -0.1286    0.2571    0.0000 C   0  0  0  0  0  0  0  0  0  0  0  0
    0.1714    1.1143    0.0000 C   0  0  0  0  0  0  0  0  0  0  0  0
    0.9964    1.1143    0.0000 N   0  0  0  0  0  0  0  0  0  0  0  0
    1.3018    0.2571    0.0000 C   0  0  0  0  0  0  0  0  0  0  0  0
    2.0143   -0.1554    0.0000 C   0  0  0  0  0  0  0  0  0  0  0  0
    2.0143   -0.9804    0.0000 C   0  0  0  0  0  0  0  0  0  0  0  0
    1.3018   -1.3929    0.0000 C   0  0  0  0  0  0  0  0  0  0  0  0
    0.5839   -0.9804    0.0000 C   0  0  0  0  0  0  0  0  0  0  0  0
    0.5839   -0.1554    0.0000 C   0  0  0  0  0  0  0  0  0  0  0  0
   -0.8455   -3.4545    0.0000 C   0  0  0  0  0  0  0  0  0  0  0  0
   -1.5605   -3.8661    0.0000 O   0  0  0  0  0  0  0  0  0  0  0  0
   -0.1315   -3.8679    0.0000 N   0  0  0  0  0  0  0  0  0  0  0  0
   -0.1325   -4.6929    0.0000 C   0  0  2  0  0  0  0  0  0  0  0  0
   -0.9529   -4.6056    0.0000 C   0  0  0  0  0  0  0  0  0  0  0  0
    0.6881   -4.6076    0.0000 O   0  0  0  0  0  0  0  0  0  0  0  0
    1.0227   -5.3617    0.0000 C   0  0  1  0  0  0  0  0  0  0  0  0
    1.5755   -4.7492    0.0000 O   0  0  0  0  0  0  0  0  0  0  0  0
    1.8070   -5.6176    0.0000 C   0  0  2  0  0  0  0  0  0  0  0  0
    2.5220   -5.2059    0.0000 C   0  0  0  0  0  0  0  0  0  0  0  0
    3.1344   -5.7587    0.0000 C   0  0  0  0  0  0  0  0  0  0  0  0
    2.7980   -6.5119    0.0000 C   0  0  0  0  0  0  0  0  0  0  0  0
    1.9776   -6.4247    0.0000 N   0  0  0  0  0  0  0  0  0  0  0  0
    1.3638   -6.9760    0.0000 C   0  0  0  0  0  0  0  0  0  0  0  0
    1.5344   -7.7832    0.0000 O   0  0  0  0  0  0  0  0  0  0  0  0
    0.5795   -6.7202    0.0000 C   0  0  2  0  0  0  0  0  0  0  0  0
   -0.0342   -7.2715    0.0000 C   0  0  0  0  0  0  0  0  0  0  0  0
   -0.8185   -7.0156    0.0000 C   0  0  0  0  0  0  0  0  0  0  0  0
   -1.4323   -7.5669    0.0000 C   0  0  0  0  0  0  0  0  0  0  0  0
   -2.2166   -7.3110    0.0000 C   0  0  0  0  0  0  0  0  0  0  0  0
   -2.3872   -6.5038    0.0000 C   0  0  0  0  0  0  0  0  0  0  0  0
   -1.7734   -5.9525    0.0000 C   0  0  0  0  0  0  0  0  0  0  0  0
   -0.9891   -6.2084    0.0000 C   0  0  0  0  0  0  0  0  0  0  0  0
    0.4090   -5.9130    0.0000 N   0  0  0  0  0  0  0  0  0  0  0  0
   -0.3050   -5.4996    0.0000 C   0  0  0  0  0  0  0  0  0  0  0  0
   -1.0591   -5.8343    0.0000 O   0  0  0  0  0  0  0  0  0  0  0  0
  1  2  1  0  0  0  0
  2  3  1  0  0  0  0
  3  4  1  0  0  0  0
  4  5  1  0  0  0  0
  6  5  1  1  0  0  0
  6  7  1  0  0  0  0
  7  2  1  6  0  0  0
  7  8  1  0  0  0  0
  8  9  1  0  0  0  0
  9 10  4  0  0  0  0
 10 11  4  0  0  0  0
 11 12  4  0  0  0  0
 12 13  4  0  0  0  0
 13 14  4  0  0  0  0
 14 15  4  0  0  0  0
 15 16  4  0  0  0  0
  6 16  1  0  0  0  0
 16 17  4  0  0  0  0
  9 17  4  0  0  0  0
 12 17  4  0  0  0  0
  4 18  1  1  0  0  0
 18 19  2  0  0  0  0
 18 20  1  0  0  0  0
 21 20  1  6  0  0  0
 21 22  1  1  0  0  0
 21 23  1  0  0  0  0
 23 24  1  0  0  0  0
 24 25  1  6  0  0  0
 24 26  1  0  0  0  0
 26 27  1  0  0  0  0
 27 28  1  0  0  0  0
 28 29  1  0  0  0  0
 29 30  1  0  0  0  0
 26 30  1  6  0  0  0
 30 31  1  0  0  0  0
 31 32  2  0  0  0  0
 31 33  1  0  0  0  0
 33 34  1  6  0  0  0
 34 35  1  0  0  0  0
 35 36  4  0  0  0  0
 36 37  4  0  0  0  0
 37 38  4  0  0  0  0
 38 39  4  0  0  0  0
 39 40  4  0  0  0  0
 35 40  4  0  0  0  0
 33 41  1  0  0  0  0
 24 41  1  0  0  0  0
 41 42  1  0  0  0  0
 21 42  1  0  0  0  0
 42 43  2  0  0  0  0
M  STY  1   1 DAT
M  SAL   1  1  11
M  SDT   1 MRV_IMPLICIT_H                                        
M  SDD   1     0.0000    0.0000    DR    ALL  0       0  
M  SED   1 IMPL_H1
M  END

> <ChembankId>
1204

> <SMILES>
CN1C[C@@H](C[C@H]2[C@H]1Cc3c[nH]c4cccc2c34)C(=O)N[C@]5(C)O[C@@]6(O)[C@@H]7CCCN7C(=O)[C@H](Cc8ccccc8)N6C5=O

> <InChI>
1/C33H37N5O5/c1-32(35-29(39)21-15-23-22-10-6-11-24-28(22)20(17-34-24)16-25(23)36(2)18-21)31(41)38-26(14-19-8-4-3-5-9-19)30(40)37-13-7-12-27(37)33(38,42)43-32/h3-6,8-11,17,21,23,25-27,34,42H,7,12-16,18H2,1-2H3,(H,35,39)

$$$$
1207
  Marvin  11101114192D          

 19 20  0  0  0  0            999 V2000
   -2.1434   -1.2375    0.0000 C   0  0  0  0  0  0  0  0  0  0  0  0
   -1.4289   -1.6500    0.0000 N   0  0  0  0  0  0  0  0  0  0  0  0
   -1.4289   -2.4750    0.0000 C   0  0  0  0  0  0  0  0  0  0  0  0
   -0.7145   -1.2375    0.0000 C   0  0  0  0  0  0  0  0  0  0  0  0
    0.0000   -1.6500    0.0000 C   0  0  0  0  0  0  0  0  0  0  0  0
    0.7145   -1.2375    0.0000 C   0  0  0  0  0  0  0  0  0  0  0  0
    1.4289   -1.6500    0.0000 C   0  0  0  0  0  0  0  0  0  0  0  0
    2.1434   -1.2375    0.0000 C   0  0  0  0  0  0  0  0  0  0  0  0
    2.8579   -1.6500    0.0000 C   0  0  0  0  0  0  0  0  0  0  0  0
    2.8579   -2.4750    0.0000 C   0  0  0  0  0  0  0  0  0  0  0  0
    3.5724   -2.8875    0.0000 Cl  0  0  0  0  0  0  0  0  0  0  0  0
    2.1434   -2.8875    0.0000 C   0  0  0  0  0  0  0  0  0  0  0  0
    1.4289   -2.4750    0.0000 C   0  0  0  0  0  0  0  0  0  0  0  0
    0.7145   -0.4125    0.0000 C   0  0  0  0  0  0  0  0  0  0  0  0
    0.0000    0.0000    0.0000 C   0  0  0  0  0  0  0  0  0  0  0  0
    0.0000    0.8250    0.0000 C   0  0  0  0  0  0  0  0  0  0  0  0
    0.7145    1.2375    0.0000 C   0  0  0  0  0  0  0  0  0  0  0  0
    1.4289    0.8250    0.0000 C   0  0  0  0  0  0  0  0  0  0  0  0
    1.4289    0.0000    0.0000 N   0  0  0  0  0  0  0  0  0  0  0  0
  1  2  1  0  0  0  0
  2  3  1  0  0  0  0
  2  4  1  0  0  0  0
  4  5  1  0  0  0  0
  5  6  1  0  0  0  0
  6  7  1  0  0  0  0
  7  8  4  0  0  0  0
  8  9  4  0  0  0  0
  9 10  4  0  0  0  0
 10 11  1  0  0  0  0
 10 12  4  0  0  0  0
 12 13  4  0  0  0  0
  7 13  4  0  0  0  0
  6 14  1  0  0  0  0
 14 15  4  0  0  0  0
 15 16  4  0  0  0  0
 16 17  4  0  0  0  0
 17 18  4  0  0  0  0
 18 19  4  0  0  0  0
 14 19  4  0  0  0  0
M  END

> <ChembankId>
1207

> <SMILES>
CN(C)CCC(c1ccc(Cl)cc1)c2ccccn2

> <InChI>
1/C16H19ClN2/c1-19(2)12-10-15(16-5-3-4-11-18-16)13-6-8-14(17)9-7-13/h3-9,11,15H,10,12H2,1-2H3

$$$$
1211
  Marvin  11101114192D          

  3  2  0  0  0  0            999 V2000
    1.2375   -0.7145    0.0000 C   0  0  0  0  0  0  0  0  0  0  0  0
    1.9520   -1.1270    0.0000 O   0  0  0  0  0  0  0  0  0  0  0  0
    2.6664   -0.7145    0.0000 N   0  0  0  0  0  0  0  0  0  0  0  0
  1  2  1  0  0  0  0
  2  3  1  0  0  0  0
M  END

> <ChembankId>
1211

> <SMILES>
CON

> <InChI>
1/CH5NO/c1-3-2/h2H2,1H3

$$$$
1213
  Marvin  11101114192D          

 10 10  0  0  0  0            999 V2000
   -0.7145    3.7125    0.0000 C   0  0  0  0  0  0  0  0  0  0  0  0
   -0.0000    3.3000    0.0000 N   0  0  0  0  0  0  0  0  0  0  0  0
   -0.0000    2.4750    0.0000 C   0  0  0  0  0  0  0  0  0  0  0  0
    0.7145    2.0625    0.0000 C   0  0  0  0  0  0  0  0  0  0  0  0
    0.7145    1.2375    0.0000 C   0  0  0  0  0  0  0  0  0  0  0  0
    1.4289    0.8250    0.0000 C   0  0  0  0  0  0  0  0  0  0  0  0
    1.4289    0.0000    0.0000 C   0  0  0  0  0  0  0  0  0  0  0  0
    0.7145   -0.4125    0.0000 C   0  0  0  0  0  0  0  0  0  0  0  0
    0.0000   -0.0000    0.0000 C   0  0  0  0  0  0  0  0  0  0  0  0
   -0.0000    0.8250    0.0000 N   0  0  0  0  0  0  0  0  0  0  0  0
  1  2  1  0  0  0  0
  2  3  1  0  0  0  0
  3  4  1  0  0  0  0
  4  5  1  0  0  0  0
  5  6  4  0  0  0  0
  6  7  4  0  0  0  0
  7  8  4  0  0  0  0
  8  9  4  0  0  0  0
  9 10  4  0  0  0  0
  5 10  4  0  0  0  0
M  END

> <ChembankId>
1213

> <SMILES>
CNCCc1ccccn1

> <InChI>
1/C8H12N2/c1-9-7-5-8-4-2-3-6-10-8/h2-4,6,9H,5,7H2,1H3

$$$$
1214
  Marvin  11101114192D          

 17 18  0  0  0  0            999 V2000
   -1.7613   -4.5956    0.0000 C   0  0  0  0  0  0  0  0  0  0  0  0
   -1.0468   -5.0081    0.0000 C   0  0  0  0  0  0  0  0  0  0  0  0
   -0.3323   -4.5956    0.0000 O   0  0  0  0  0  0  0  0  0  0  0  0
    0.3822   -5.0081    0.0000 C   0  0  0  0  0  0  0  0  0  0  0  0
    0.3822   -5.8331    0.0000 O   0  0  0  0  0  0  0  0  0  0  0  0
    1.0966   -4.5956    0.0000 N   0  0  0  0  0  0  0  0  0  0  0  0
    1.8111   -5.0081    0.0000 C   0  0  0  0  0  0  0  0  0  0  0  0
    2.5648   -4.6725    0.0000 C   0  0  0  0  0  0  0  0  0  0  0  0
    3.1168   -5.2856    0.0000 N   0  3  0  0  0  0  0  0  0  0  0  0
    2.7043   -6.0001    0.0000 N   0  0  0  0  0  0  0  0  0  0  0  0
    1.8973   -5.8286    0.0000 O   0  0  0  0  0  0  0  0  0  0  0  0
    3.9373   -5.1994    0.0000 N   0  0  0  0  0  0  0  0  0  0  0  0
    4.2728   -4.4457    0.0000 C   0  0  0  0  0  0  0  0  0  0  0  0
    5.0933   -4.3595    0.0000 C   0  0  0  0  0  0  0  0  0  0  0  0
    5.5782   -5.0269    0.0000 O   0  0  0  0  0  0  0  0  0  0  0  0
    5.2427   -5.7806    0.0000 C   0  0  0  0  0  0  0  0  0  0  0  0
    4.4222   -5.8668    0.0000 C   0  0  0  0  0  0  0  0  0  0  0  0
  1  2  1  0  0  0  0
  2  3  1  0  0  0  0
  3  4  1  0  0  0  0
  4  5  2  0  0  0  0
  4  6  1  0  0  0  0
  6  7  1  0  0  0  0
  7  8  4  0  0  0  0
  8  9  4  0  0  0  0
  9 10  4  0  0  0  0
 10 11  4  0  0  0  0
  7 11  4  0  0  0  0
  9 12  1  0  0  0  0
 12 13  1  0  0  0  0
 13 14  1  0  0  0  0
 14 15  1  0  0  0  0
 15 16  1  0  0  0  0
 16 17  1  0  0  0  0
 12 17  1  0  0  0  0
M  CHG  1   9   1
M  END

> <ChembankId>
1214

> <SMILES>
CCOC(=O)Nc1c[n+](no1)N2CCOCC2

> <InChI>
1/C9H14N4O4/c1-2-16-9(14)10-8-7-13(11-17-8)12-3-5-15-6-4-12/h7H,2-6H2,1H3/p+1

$$$$
1215
  Marvin  11101114192D          

 24 26  0  0  0  0            999 V2000
    0.7145   -2.0625    0.0000 C   0  0  0  0  0  0  0  0  0  0  0  0
    0.7145   -1.2375    0.0000 C   0  0  0  0  0  0  0  0  0  0  0  0
    1.4289   -0.8250    0.0000 N   0  0  0  0  0  0  0  0  0  0  0  0
    2.1434   -1.2375    0.0000 C   0  0  0  0  0  0  0  0  0  0  0  0
    2.8579   -0.8250    0.0000 C   0  0  0  0  0  0  0  0  0  0  0  0
    3.5724   -1.2375    0.0000 C   0  0  0  0  0  0  0  0  0  0  0  0
    4.2868   -0.8250    0.0000 C   0  0  0  0  0  0  0  0  0  0  0  0
    4.2868    0.0000    0.0000 C   0  0  0  0  0  0  0  0  0  0  0  0
    5.0013    0.4125    0.0000 C   0  0  0  0  0  0  0  0  0  0  0  0
    5.7158    0.0000    0.0000 C   0  0  0  0  0  0  0  0  0  0  0  0
    5.7158   -0.8250    0.0000 C   0  0  0  0  0  0  0  0  0  0  0  0
    5.0013   -1.2375    0.0000 C   0  0  0  0  0  0  0  0  0  0  0  0
    3.5724   -2.0625    0.0000 C   0  0  0  0  0  0  0  0  0  0  0  0
    4.2868   -2.4750    0.0000 C   0  0  0  0  0  0  0  0  0  0  0  0
    4.2868   -3.3000    0.0000 C   0  0  0  0  0  0  0  0  0  0  0  0
    3.5724   -3.7125    0.0000 C   0  0  0  0  0  0  0  0  0  0  0  0
    2.8579   -3.3000    0.0000 C   0  0  0  0  0  0  0  0  0  0  0  0
    2.8579   -2.4750    0.0000 C   0  0  0  0  0  0  0  0  0  0  0  0
    0.0000   -0.8250    0.0000 C   0  0  0  0  0  0  0  0  0  0  0  0
   -0.7145   -1.2375    0.0000 C   0  0  0  0  0  0  0  0  0  0  0  0
   -1.4289   -0.8250    0.0000 C   0  0  0  0  0  0  0  0  0  0  0  0
   -1.4289   -0.0000    0.0000 C   0  0  0  0  0  0  0  0  0  0  0  0
   -0.7145    0.4125    0.0000 C   0  0  0  0  0  0  0  0  0  0  0  0
    0.0000   -0.0000    0.0000 C   0  0  0  0  0  0  0  0  0  0  0  0
  1  2  1  0  0  0  0
  2  3  1  0  0  0  0
  3  4  1  0  0  0  0
  4  5  1  0  0  0  0
  5  6  1  0  0  0  0
  6  7  1  0  0  0  0
  7  8  4  0  0  0  0
  8  9  4  0  0  0  0
  9 10  4  0  0  0  0
 10 11  4  0  0  0  0
 11 12  4  0  0  0  0
  7 12  4  0  0  0  0
  6 13  1  0  0  0  0
 13 14  4  0  0  0  0
 14 15  4  0  0  0  0
 15 16  4  0  0  0  0
 16 17  4  0  0  0  0
 17 18  4  0  0  0  0
 13 18  4  0  0  0  0
  2 19  1  0  0  0  0
 19 20  4  0  0  0  0
 20 21  4  0  0  0  0
 21 22  4  0  0  0  0
 22 23  4  0  0  0  0
 23 24  4  0  0  0  0
 19 24  4  0  0  0  0
M  END

> <ChembankId>
1215

> <SMILES>
CC(NCCC(c1ccccc1)c2ccccc2)c3ccccc3

> <InChI>
1/C23H25N/c1-19(20-11-5-2-6-12-20)24-18-17-23(21-13-7-3-8-14-21)22-15-9-4-10-16-22/h2-16,19,23-24H,17-18H2,1H3

$$$$
1218
  Marvin  11101114192D          

 19 19  0  0  0  0            999 V2000
   -3.5724    2.8875    0.0000 C   0  0  0  0  0  0  0  0  0  0  0  0
   -2.8579    2.4750    0.0000 C   0  0  0  0  0  0  0  0  0  0  0  0
   -2.1434    2.8875    0.0000 C   0  0  0  0  0  0  0  0  0  0  0  0
   -1.4289    2.4750    0.0000 C   0  0  0  0  0  0  0  0  0  0  0  0
   -0.7145    2.8875    0.0000 N   0  0  0  0  0  0  0  0  0  0  0  0
    0.0000    2.4750    0.0000 C   0  0  0  0  0  0  0  0  0  0  0  0
    0.7145    2.8875    0.0000 C   0  0  0  0  0  0  0  0  0  0  0  0
    1.4289    2.4750    0.0000 C   0  0  0  0  0  0  0  0  0  0  0  0
    1.4289    1.6500    0.0000 C   0  0  0  0  0  0  0  0  0  0  0  0
    0.7145    1.2375    0.0000 C   0  0  0  0  0  0  0  0  0  0  0  0
   -0.0000    1.6500    0.0000 C   0  0  0  0  0  0  0  0  0  0  0  0
    2.1434    1.2375    0.0000 C   0  0  0  0  0  0  0  0  0  0  0  0
    2.1434    0.4125    0.0000 O   0  0  0  0  0  0  0  0  0  0  0  0
    2.8579    1.6500    0.0000 O   0  0  0  0  0  0  0  0  0  0  0  0
    3.5724    1.2375    0.0000 C   0  0  0  0  0  0  0  0  0  0  0  0
    4.2868    1.6500    0.0000 C   0  0  0  0  0  0  0  0  0  0  0  0
    5.0013    1.2375    0.0000 N   0  0  0  0  0  0  0  0  0  0  0  0
    5.7158    1.6500    0.0000 C   0  0  0  0  0  0  0  0  0  0  0  0
    5.0013    0.4125    0.0000 C   0  0  0  0  0  0  0  0  0  0  0  0
  1  2  1  0  0  0  0
  2  3  1  0  0  0  0
  3  4  1  0  0  0  0
  4  5  1  0  0  0  0
  5  6  1  0  0  0  0
  6  7  4  0  0  0  0
  7  8  4  0  0  0  0
  8  9  4  0  0  0  0
  9 10  4  0  0  0  0
 10 11  4  0  0  0  0
  6 11  4  0  0  0  0
  9 12  1  0  0  0  0
 12 13  2  0  0  0  0
 12 14  1  0  0  0  0
 14 15  1  0  0  0  0
 15 16  1  0  0  0  0
 16 17  1  0  0  0  0
 17 18  1  0  0  0  0
 17 19  1  0  0  0  0
M  END

> <ChembankId>
1218

> <SMILES>
CCCCNc1ccc(cc1)C(=O)OCCN(C)C

> <InChI>
1/C15H24N2O2/c1-4-5-10-16-14-8-6-13(7-9-14)15(18)19-12-11-17(2)3/h6-9,16H,4-5,10-12H2,1-3H3

$$$$
1221
  Marvin  11101114192D          

 21 22  0  0  0  0            999 V2000
    0.7145   -3.7125    0.0000 C   0  0  0  0  0  0  0  0  0  0  0  0
    1.4289   -4.1250    0.0000 N   0  0  0  0  0  0  0  0  0  0  0  0
    1.4289   -4.9500    0.0000 C   0  0  0  0  0  0  0  0  0  0  0  0
    2.1434   -3.7125    0.0000 C   0  0  0  0  0  0  0  0  0  0  0  0
    2.8579   -4.1250    0.0000 C   0  0  0  0  0  0  0  0  0  0  0  0
    3.5724   -3.7125    0.0000 O   0  0  0  0  0  0  0  0  0  0  0  0
    4.2868   -4.1250    0.0000 C   0  0  0  0  0  0  0  0  0  0  0  0
    4.2868   -4.9500    0.0000 O   0  0  0  0  0  0  0  0  0  0  0  0
    5.0013   -3.7125    0.0000 C   0  0  0  0  0  0  0  0  0  0  0  0
    5.7158   -4.1250    0.0000 C   0  0  0  0  0  0  0  0  0  0  0  0
    6.4302   -3.7125    0.0000 C   0  0  0  0  0  0  0  0  0  0  0  0
    7.1447   -4.1250    0.0000 C   0  0  0  0  0  0  0  0  0  0  0  0
    7.1447   -4.9500    0.0000 C   0  0  0  0  0  0  0  0  0  0  0  0
    6.4302   -5.3625    0.0000 C   0  0  0  0  0  0  0  0  0  0  0  0
    5.7158   -4.9500    0.0000 C   0  0  0  0  0  0  0  0  0  0  0  0
    5.0013   -2.8875    0.0000 C   0  0  0  0  0  0  0  0  0  0  0  0
    5.8218   -2.9737    0.0000 O   0  0  0  0  0  0  0  0  0  0  0  0
    4.1808   -2.9737    0.0000 C   0  0  0  0  0  0  0  0  0  0  0  0
    3.8453   -2.2201    0.0000 C   0  0  0  0  0  0  0  0  0  0  0  0
    4.4584   -1.6680    0.0000 C   0  0  0  0  0  0  0  0  0  0  0  0
    5.1728   -2.0805    0.0000 C   0  0  0  0  0  0  0  0  0  0  0  0
  1  2  1  0  0  0  0
  2  3  1  0  0  0  0
  2  4  1  0  0  0  0
  4  5  1  0  0  0  0
  5  6  1  0  0  0  0
  6  7  1  0  0  0  0
  7  8  2  0  0  0  0
  7  9  1  0  0  0  0
  9 10  1  0  0  0  0
 10 11  4  0  0  0  0
 11 12  4  0  0  0  0
 12 13  4  0  0  0  0
 13 14  4  0  0  0  0
 14 15  4  0  0  0  0
 10 15  4  0  0  0  0
  9 16  1  0  0  0  0
 16 17  1  0  0  0  0
 16 18  1  0  0  0  0
 18 19  1  0  0  0  0
 19 20  1  0  0  0  0
 20 21  1  0  0  0  0
 16 21  1  0  0  0  0
M  END

> <ChembankId>
1221

> <SMILES>
CN(C)CCOC(=O)C(c1ccccc1)C2(O)CCCC2

> <InChI>
1/C17H25NO3/c1-18(2)12-13-21-16(19)15(14-8-4-3-5-9-14)17(20)10-6-7-11-17/h3-5,8-9,15,20H,6-7,10-13H2,1-2H3

$$$$
1222
  Marvin  11101114192D          

 13 14  0  0  0  0            999 V2000
    0.8838   -2.1500    0.0000 C   0  0  0  0  0  0  0  0  0  0  0  0
    1.1387   -1.3654    0.0000 N   0  0  0  0  0  0  0  0  0  0  0  0
    0.6538   -0.6979    0.0000 C   0  0  0  0  0  0  0  0  0  0  0  0
    1.1387   -0.0305    0.0000 N   0  0  0  0  0  0  0  0  0  0  0  0
    1.9233   -0.2854    0.0000 C   0  0  0  0  0  0  0  0  0  0  0  0
    2.6378    0.1271    0.0000 N   0  0  0  0  0  0  0  0  0  0  0  0
    2.6378    0.9521    0.0000 C   0  0  0  0  0  0  0  0  0  0  0  0
    3.3523   -0.2854    0.0000 C   0  0  0  0  0  0  0  0  0  0  0  0
    4.0668    0.1271    0.0000 O   0  0  0  0  0  0  0  0  0  0  0  0
    3.3523   -1.1104    0.0000 N   0  0  0  0  0  0  0  0  0  0  0  0
    2.6378   -1.5229    0.0000 C   0  0  0  0  0  0  0  0  0  0  0  0
    2.6378   -2.3479    0.0000 O   0  0  0  0  0  0  0  0  0  0  0  0
    1.9233   -1.1104    0.0000 C   0  0  0  0  0  0  0  0  0  0  0  0
  1  2  1  0  0  0  0
  2  3  4  0  0  0  0
  3  4  4  0  0  0  0
  4  5  4  0  0  0  0
  5  6  4  0  0  0  0
  6  7  1  0  0  0  0
  6  8  4  0  0  0  0
  8  9  2  0  0  0  0
  8 10  4  0  0  0  0
 10 11  4  0  0  0  0
 11 12  2  0  0  0  0
 11 13  4  0  0  0  0
  2 13  4  0  0  0  0
  5 13  4  0  0  0  0
M  STY  1   1 DAT
M  SAL   1  1  10
M  SDT   1 MRV_IMPLICIT_H                                        
M  SDD   1     0.0000    0.0000    DR    ALL  0       0  
M  SED   1 IMPL_H1
M  END

> <ChembankId>
1222

> <SMILES>
Cn1cnc2n(C)c(=O)[nH]c(=O)c12

> <InChI>
1/C7H8N4O2/c1-10-3-8-5-4(10)6(12)9-7(13)11(5)2/h3H,1-2H3,(H,9,12,13)

$$$$
1223
  Marvin  11101114192D          

 24 24  0  0  0  0            999 V2000
   -2.1434   -2.8875    0.0000 C   0  0  0  0  0  0  0  0  0  0  0  0
   -1.4289   -2.4750    0.0000 C   0  0  0  0  0  0  0  0  0  0  0  0
   -1.4289   -1.6500    0.0000 C   0  0  0  0  0  0  0  0  0  0  0  0
   -0.7145   -1.2375    0.0000 C   0  0  0  0  0  0  0  0  0  0  0  0
    0.0000   -1.6500    0.0000 O   0  0  0  0  0  0  0  0  0  0  0  0
   -0.7145   -0.4125    0.0000 N   0  0  0  0  0  0  0  0  0  0  0  0
   -0.0000    0.0000    0.0000 C   0  0  0  0  0  0  0  0  0  0  0  0
   -0.0000    0.8250    0.0000 C   0  0  0  0  0  0  0  0  0  0  0  0
    0.7145    1.2375    0.0000 C   0  0  0  0  0  0  0  0  0  0  0  0
    1.4289    0.8250    0.0000 C   0  0  0  0  0  0  0  0  0  0  0  0
    2.1434    1.2375    0.0000 O   0  0  0  0  0  0  0  0  0  0  0  0
    2.8579    0.8250    0.0000 C   0  0  0  0  0  0  0  0  0  0  0  0
    3.5724    1.2375    0.0000 C   0  0  0  0  0  0  0  0  0  0  0  0
    3.5724    2.0625    0.0000 O   0  0  0  0  0  0  0  0  0  0  0  0
    4.2868    0.8250    0.0000 C   0  0  0  0  0  0  0  0  0  0  0  0
    5.0013    1.2375    0.0000 N   0  0  0  0  0  0  0  0  0  0  0  0
    5.7158    0.8250    0.0000 C   0  0  0  0  0  0  0  0  0  0  0  0
    6.4302    1.2375    0.0000 C   0  0  0  0  0  0  0  0  0  0  0  0
    5.7158    0.0000    0.0000 C   0  0  0  0  0  0  0  0  0  0  0  0
    1.4289    0.0000    0.0000 C   0  0  0  0  0  0  0  0  0  0  0  0
    0.7145   -0.4125    0.0000 C   0  0  0  0  0  0  0  0  0  0  0  0
    2.1434   -0.4125    0.0000 C   0  0  0  0  0  0  0  0  0  0  0  0
    2.1434   -1.2375    0.0000 O   0  0  0  0  0  0  0  0  0  0  0  0
    2.8579    0.0000    0.0000 C   0  0  0  0  0  0  0  0  0  0  0  0
  1  2  1  0  0  0  0
  2  3  1  0  0  0  0
  3  4  1  0  0  0  0
  4  5  2  0  0  0  0
  4  6  1  0  0  0  0
  6  7  1  0  0  0  0
  7  8  4  0  0  0  0
  8  9  4  0  0  0  0
  9 10  4  0  0  0  0
 10 11  1  0  0  0  0
 11 12  1  0  0  0  0
 12 13  1  0  0  0  0
 13 14  1  0  0  0  0
 13 15  1  0  0  0  0
 15 16  1  0  0  0  0
 16 17  1  0  0  0  0
 17 18  1  0  0  0  0
 17 19  1  0  0  0  0
 10 20  4  0  0  0  0
 20 21  4  0  0  0  0
  7 21  4  0  0  0  0
 20 22  1  0  0  0  0
 22 23  2  0  0  0  0
 22 24  1  0  0  0  0
M  END

> <ChembankId>
1223

> <SMILES>
CCCC(=O)Nc1ccc(OCC(O)CNC(C)C)c(c1)C(=O)C

> <InChI>
1/C18H28N2O4/c1-5-6-18(23)20-14-7-8-17(16(9-14)13(4)21)24-11-15(22)10-19-12(2)3/h7-9,12,15,19,22H,5-6,10-11H2,1-4H3,(H,20,23)

$$$$
1225
  Marvin  11101114192D          

 19 21  0  0  0  0            999 V2000
    0.0000   -1.6500    0.0000 O   0  0  0  0  0  0  0  0  0  0  0  0
    0.7145   -1.2375    0.0000 C   0  0  0  0  0  0  0  0  0  0  0  0
    0.7145   -0.4125    0.0000 C   0  0  0  0  0  0  0  0  0  0  0  0
    1.4289    0.0000    0.0000 C   0  0  0  0  0  0  0  0  0  0  0  0
    1.4289    0.8250    0.0000 O   0  0  0  0  0  0  0  0  0  0  0  0
    2.1434   -0.4125    0.0000 C   0  0  0  0  0  0  0  0  0  0  0  0
    2.8579    0.0000    0.0000 C   0  0  0  0  0  0  0  0  0  0  0  0
    2.8579    0.8250    0.0000 O   0  0  0  0  0  0  0  0  0  0  0  0
    3.5724   -0.4125    0.0000 C   0  0  0  0  0  0  0  0  0  0  0  0
    3.5724   -1.2375    0.0000 C   0  0  0  0  0  0  0  0  0  0  0  0
    2.8579   -1.6500    0.0000 O   0  0  0  0  0  0  0  0  0  0  0  0
    2.1434   -1.2375    0.0000 C   0  0  0  0  0  0  0  0  0  0  0  0
    1.4289   -1.6500    0.0000 C   0  0  0  0  0  0  0  0  0  0  0  0
    4.2868   -1.6500    0.0000 C   0  0  0  0  0  0  0  0  0  0  0  0
    5.0013   -1.2375    0.0000 C   0  0  0  0  0  0  0  0  0  0  0  0
    5.7158   -1.6500    0.0000 C   0  0  0  0  0  0  0  0  0  0  0  0
    5.7158   -2.4750    0.0000 C   0  0  0  0  0  0  0  0  0  0  0  0
    5.0013   -2.8875    0.0000 C   0  0  0  0  0  0  0  0  0  0  0  0
    4.2868   -2.4750    0.0000 C   0  0  0  0  0  0  0  0  0  0  0  0
  1  2  1  0  0  0  0
  2  3  4  0  0  0  0
  3  4  4  0  0  0  0
  4  5  1  0  0  0  0
  4  6  4  0  0  0  0
  6  7  4  0  0  0  0
  7  8  2  0  0  0  0
  7  9  4  0  0  0  0
  9 10  4  0  0  0  0
 10 11  4  0  0  0  0
 11 12  4  0  0  0  0
  6 12  4  0  0  0  0
 12 13  4  0  0  0  0
  2 13  4  0  0  0  0
 10 14  1  0  0  0  0
 14 15  4  0  0  0  0
 15 16  4  0  0  0  0
 16 17  4  0  0  0  0
 17 18  4  0  0  0  0
 18 19  4  0  0  0  0
 14 19  4  0  0  0  0
M  END

> <ChembankId>
1225

> <SMILES>
Oc1cc(O)c2c(=O)cc(oc2c1)c3ccccc3

> <InChI>
1/C15H10O4/c16-10-6-11(17)15-12(18)8-13(19-14(15)7-10)9-4-2-1-3-5-9/h1-8,16-17H

$$$$
1234
  Marvin  11101114192D          

 27 30  0  0  1  0            999 V2000
    1.4978    2.4498    0.0000 C   0  0  0  0  0  0  0  0  0  0  0  0
    1.7781    1.6739    0.0000 C   0  0  1  0  0  0  0  0  0  0  0  0
    2.5902    1.5287    0.0000 C   0  0  0  0  0  0  0  0  0  0  0  0
    2.8705    0.7528    0.0000 C   0  0  0  0  0  0  0  0  0  0  0  0
    3.6826    0.6076    0.0000 C   0  0  0  0  0  0  0  0  0  0  0  0
    4.3340    1.1139    0.0000 C   0  0  0  0  0  0  0  0  0  0  0  0
    5.0168    0.6509    0.0000 C   0  0  0  0  0  0  0  0  0  0  0  0
    4.7875   -0.1416    0.0000 C   0  0  2  0  0  0  0  0  0  0  0  0
    5.5996   -0.2868    0.0000 O   0  0  0  0  0  0  0  0  0  0  0  0
    4.7280   -0.9644    0.0000 C   0  0  0  0  0  0  0  0  0  0  0  0
    3.9856   -1.3243    0.0000 O   0  0  0  0  0  0  0  0  0  0  0  0
    5.4108   -1.4274    0.0000 C   0  0  0  0  0  0  0  0  0  0  0  0
    5.3513   -2.2502    0.0000 O   0  0  0  0  0  0  0  0  0  0  0  0
    3.9629   -0.1684    0.0000 C   0  0  2  0  0  0  0  0  0  0  0  0
    4.3228   -0.9107    0.0000 C   0  0  0  0  0  0  0  0  0  0  0  0
    3.4311   -0.7991    0.0000 C   0  0  0  0  0  0  0  0  0  0  0  0
    2.6190   -0.6539    0.0000 C   0  0  2  0  0  0  0  0  0  0  0  0
    2.0872   -1.2846    0.0000 O   0  0  0  0  0  0  0  0  0  0  0  0
    2.3387    0.1221    0.0000 C   0  0  0  0  0  0  0  0  0  0  0  0
    1.5266    0.2673    0.0000 C   0  0  1  0  0  0  0  0  0  0  0  0
    1.8069   -0.5086    0.0000 C   0  0  0  0  0  0  0  0  0  0  0  0
    0.9948   -0.3634    0.0000 C   0  0  0  0  0  0  0  0  0  0  0  0
    0.1827   -0.2182    0.0000 C   0  0  0  0  0  0  0  0  0  0  0  0
   -0.0976    0.5577    0.0000 C   0  0  0  0  0  0  0  0  0  0  0  0
   -0.9098    0.7029    0.0000 O   0  0  0  0  0  0  0  0  0  0  0  0
    0.4342    1.1884    0.0000 C   0  0  0  0  0  0  0  0  0  0  0  0
    1.2463    1.0432    0.0000 C   0  0  0  0  0  0  0  0  0  0  0  0
  2  1  1  1  0  0  0
  2  3  1  0  0  0  0
  3  4  1  0  0  0  0
  4  5  1  0  0  0  0
  5  6  1  0  0  0  0
  6  7  1  0  0  0  0
  7  8  1  0  0  0  0
  8  9  1  1  0  0  0
  8 10  1  6  0  0  0
 10 11  2  0  0  0  0
 10 12  1  0  0  0  0
 12 13  1  0  0  0  0
  8 14  1  0  0  0  0
  5 14  1  0  0  0  0
 14 15  1  6  0  0  0
 14 16  1  0  0  0  0
 16 17  1  0  0  0  0
 17 18  1  6  0  0  0
 17 19  1  0  0  0  0
  4 19  1  0  0  0  0
 19 20  1  0  0  0  0
 20 21  1  6  0  0  0
 20 22  1  0  0  0  0
 22 23  2  0  0  0  0
 23 24  1  0  0  0  0
 24 25  2  0  0  0  0
 24 26  1  0  0  0  0
 26 27  2  0  0  0  0
  2 27  1  0  0  0  0
 20 27  1  0  0  0  0
M  END

> <ChembankId>
1234

> <SMILES>
C[C@H]1CC2C3CC[C@](O)(C(=O)CO)[C@@]3(C)C[C@H](O)C2[C@@]4(C)C=CC(=O)C=C14

> <InChI>
1/C22H30O5/c1-12-8-14-15-5-7-22(27,18(26)11-23)21(15,3)10-17(25)19(14)20(2)6-4-13(24)9-16(12)20/h4,6,9,12,14-15,17,19,23,25,27H,5,7-8,10-11H2,1-3H3

$$$$
1240
  Marvin  11101114192D          

 21 22  0  0  0  0            999 V2000
   -5.7158   -4.1250    0.0000 C   0  0  0  0  0  0  0  0  0  0  0  0
   -5.0013   -4.5375    0.0000 C   0  0  0  0  0  0  0  0  0  0  0  0
   -4.2868   -4.1250    0.0000 C   0  0  0  0  0  0  0  0  0  0  0  0
   -3.5724   -4.5375    0.0000 C   0  0  0  0  0  0  0  0  0  0  0  0
   -2.8579   -4.1250    0.0000 O   0  0  0  0  0  0  0  0  0  0  0  0
   -2.1434   -4.5375    0.0000 C   0  0  0  0  0  0  0  0  0  0  0  0
   -1.4289   -4.1250    0.0000 C   0  0  0  0  0  0  0  0  0  0  0  0
   -0.7145   -4.5375    0.0000 C   0  0  0  0  0  0  0  0  0  0  0  0
   -0.7145   -5.3625    0.0000 C   0  0  0  0  0  0  0  0  0  0  0  0
   -1.4289   -5.7750    0.0000 C   0  0  0  0  0  0  0  0  0  0  0  0
   -2.1434   -5.3625    0.0000 C   0  0  0  0  0  0  0  0  0  0  0  0
    0.0000   -5.7750    0.0000 C   0  0  0  0  0  0  0  0  0  0  0  0
    0.7145   -5.3625    0.0000 O   0  0  0  0  0  0  0  0  0  0  0  0
    0.0000   -6.6000    0.0000 C   0  0  0  0  0  0  0  0  0  0  0  0
    0.7145   -7.0125    0.0000 C   0  0  0  0  0  0  0  0  0  0  0  0
    1.4289   -6.6000    0.0000 N   0  0  0  0  0  0  0  0  0  0  0  0
    1.4289   -5.7750    0.0000 C   0  0  0  0  0  0  0  0  0  0  0  0
    2.1434   -5.3625    0.0000 C   0  0  0  0  0  0  0  0  0  0  0  0
    2.8579   -5.7750    0.0000 C   0  0  0  0  0  0  0  0  0  0  0  0
    2.8579   -6.6000    0.0000 C   0  0  0  0  0  0  0  0  0  0  0  0
    2.1434   -7.0125    0.0000 C   0  0  0  0  0  0  0  0  0  0  0  0
  1  2  1  0  0  0  0
  2  3  1  0  0  0  0
  3  4  1  0  0  0  0
  4  5  1  0  0  0  0
  5  6  1  0  0  0  0
  6  7  4  0  0  0  0
  7  8  4  0  0  0  0
  8  9  4  0  0  0  0
  9 10  4  0  0  0  0
 10 11  4  0  0  0  0
  6 11  4  0  0  0  0
  9 12  1  0  0  0  0
 12 13  2  0  0  0  0
 12 14  1  0  0  0  0
 14 15  1  0  0  0  0
 15 16  1  0  0  0  0
 16 17  1  0  0  0  0
 17 18  1  0  0  0  0
 18 19  1  0  0  0  0
 19 20  1  0  0  0  0
 20 21  1  0  0  0  0
 16 21  1  0  0  0  0
M  END

> <ChembankId>
1240

> <SMILES>
CCCCOc1ccc(cc1)C(=O)CCN2CCCCC2

> <InChI>
1/C18H27NO2/c1-2-3-15-21-17-9-7-16(8-10-17)18(20)11-14-19-12-5-4-6-13-19/h7-10H,2-6,11-15H2,1H3

$$$$
1241
  Marvin  11101114192D          

 14 14  0  0  0  0            999 V2000
    1.4289   -3.3000    0.0000 N   0  0  0  0  0  0  0  0  0  0  0  0
    1.4289   -2.4750    0.0000 C   0  0  0  0  0  0  0  0  0  0  0  0
    2.1434   -2.0625    0.0000 N   0  0  0  0  0  0  0  0  0  0  0  0
    0.7145   -2.0625    0.0000 N   0  0  0  0  0  0  0  0  0  0  0  0
    0.7145   -1.2375    0.0000 S   0  0  0  0  0  0  0  0  0  0  0  0
    1.5395   -1.2375    0.0000 O   0  0  0  0  0  0  0  0  0  0  0  0
   -0.1105   -1.2375    0.0000 O   0  0  0  0  0  0  0  0  0  0  0  0
    0.7145   -0.4125    0.0000 C   0  0  0  0  0  0  0  0  0  0  0  0
   -0.0000    0.0000    0.0000 C   0  0  0  0  0  0  0  0  0  0  0  0
    0.0000    0.8250    0.0000 C   0  0  0  0  0  0  0  0  0  0  0  0
    0.7145    1.2375    0.0000 C   0  0  0  0  0  0  0  0  0  0  0  0
    0.7145    2.0625    0.0000 N   0  0  0  0  0  0  0  0  0  0  0  0
    1.4289    0.8250    0.0000 C   0  0  0  0  0  0  0  0  0  0  0  0
    1.4289    0.0000    0.0000 C   0  0  0  0  0  0  0  0  0  0  0  0
  1  2  1  0  0  0  0
  2  3  2  0  0  0  0
  2  4  1  0  0  0  0
  4  5  1  0  0  0  0
  5  6  2  0  0  0  0
  5  7  2  0  0  0  0
  5  8  1  0  0  0  0
  8  9  4  0  0  0  0
  9 10  4  0  0  0  0
 10 11  4  0  0  0  0
 11 12  1  0  0  0  0
 11 13  4  0  0  0  0
 13 14  4  0  0  0  0
  8 14  4  0  0  0  0
M  END

> <ChembankId>
1241

> <SMILES>
NC(=N)NS(=O)(=O)c1ccc(N)cc1

> <InChI>
1/C7H10N4O2S/c8-5-1-3-6(4-2-5)14(12,13)11-7(9)10/h1-4H,8H2,(H4,9,10,11)

$$$$
1244
  Marvin  11101114192D          

 25 27  0  0  0  0            999 V2000
   -1.6427   -0.4950    0.0000 C   0  0  0  0  0  0  0  0  0  0  0  0
   -2.1730   -1.1270    0.0000 N   0  3  0  0  0  0  0  0  0  0  0  0
   -2.7033   -0.4950    0.0000 C   0  0  0  0  0  0  0  0  0  0  0  0
   -1.4586   -1.5395    0.0000 C   0  0  0  0  0  0  0  0  0  0  0  0
   -1.4586   -2.3645    0.0000 C   0  0  0  0  0  0  0  0  0  0  0  0
   -2.1730   -2.7770    0.0000 C   0  0  0  0  0  0  0  0  0  0  0  0
   -2.8875   -2.3645    0.0000 C   0  0  0  0  0  0  0  0  0  0  0  0
   -2.8875   -1.5395    0.0000 C   0  0  0  0  0  0  0  0  0  0  0  0
   -3.6020   -2.7770    0.0000 O   0  0  0  0  0  0  0  0  0  0  0  0
   -3.6020   -3.6020    0.0000 C   0  0  0  0  0  0  0  0  0  0  0  0
   -2.8875   -4.0145    0.0000 O   0  0  0  0  0  0  0  0  0  0  0  0
   -4.3164   -4.0145    0.0000 C   0  0  0  0  0  0  0  0  0  0  0  0
   -4.7289   -3.3000    0.0000 O   0  0  0  0  0  0  0  0  0  0  0  0
   -5.0309   -4.4270    0.0000 C   0  0  0  0  0  0  0  0  0  0  0  0
   -5.0309   -5.2520    0.0000 C   0  0  0  0  0  0  0  0  0  0  0  0
   -5.7454   -5.6645    0.0000 C   0  0  0  0  0  0  0  0  0  0  0  0
   -6.4599   -5.2520    0.0000 C   0  0  0  0  0  0  0  0  0  0  0  0
   -6.4599   -4.4270    0.0000 C   0  0  0  0  0  0  0  0  0  0  0  0
   -5.7454   -4.0145    0.0000 C   0  0  0  0  0  0  0  0  0  0  0  0
   -3.9039   -4.7289    0.0000 C   0  0  0  0  0  0  0  0  0  0  0  0
   -3.0789   -4.7289    0.0000 C   0  0  0  0  0  0  0  0  0  0  0  0
   -2.6664   -5.4434    0.0000 C   0  0  0  0  0  0  0  0  0  0  0  0
   -3.0789   -6.1579    0.0000 C   0  0  0  0  0  0  0  0  0  0  0  0
   -3.9039   -6.1579    0.0000 C   0  0  0  0  0  0  0  0  0  0  0  0
   -4.3164   -5.4434    0.0000 C   0  0  0  0  0  0  0  0  0  0  0  0
  1  2  1  0  0  0  0
  2  3  1  0  0  0  0
  2  4  1  0  0  0  0
  4  5  1  0  0  0  0
  5  6  1  0  0  0  0
  6  7  1  0  0  0  0
  7  8  1  0  0  0  0
  2  8  1  0  0  0  0
  7  9  1  0  0  0  0
  9 10  1  0  0  0  0
 10 11  2  0  0  0  0
 10 12  1  0  0  0  0
 12 13  1  0  0  0  0
 12 14  1  0  0  0  0
 14 15  4  0  0  0  0
 15 16  4  0  0  0  0
 16 17  4  0  0  0  0
 17 18  4  0  0  0  0
 18 19  4  0  0  0  0
 14 19  4  0  0  0  0
 12 20  1  0  0  0  0
 20 21  4  0  0  0  0
 21 22  4  0  0  0  0
 22 23  4  0  0  0  0
 23 24  4  0  0  0  0
 24 25  4  0  0  0  0
 20 25  4  0  0  0  0
M  CHG  1   2   1
M  END

> <ChembankId>
1244

> <SMILES>
C[N+]1(C)CCCC(C1)OC(=O)C(O)(c2ccccc2)c3ccccc3

> <InChI>
1/C21H26NO3/c1-22(2)15-9-14-19(16-22)25-20(23)21(24,17-10-5-3-6-11-17)18-12-7-4-8-13-18/h3-8,10-13,19,24H,9,14-16H2,1-2H3/q+1

$$$$
1252
  Marvin  11101114192D          

 15 15  0  0  0  0            999 V2000
   -2.8579   -1.6500    0.0000 C   0  0  0  0  0  0  0  0  0  0  0  0
   -2.1434   -2.0625    0.0000 C   0  0  0  0  0  0  0  0  0  0  0  0
   -2.1434   -2.8875    0.0000 C   0  0  0  0  0  0  0  0  0  0  0  0
   -1.4289   -1.6500    0.0000 N   0  0  0  0  0  0  0  0  0  0  0  0
   -0.7145   -2.0625    0.0000 C   0  0  0  0  0  0  0  0  0  0  0  0
    0.0000   -1.6500    0.0000 C   0  0  0  0  0  0  0  0  0  0  0  0
    0.0000   -0.8250    0.0000 O   0  0  0  0  0  0  0  0  0  0  0  0
    0.7145   -2.0625    0.0000 C   0  0  0  0  0  0  0  0  0  0  0  0
    1.4289   -1.6500    0.0000 C   0  0  0  0  0  0  0  0  0  0  0  0
    2.1434   -2.0625    0.0000 C   0  0  0  0  0  0  0  0  0  0  0  0
    2.8579   -1.6500    0.0000 O   0  0  0  0  0  0  0  0  0  0  0  0
    2.1434   -2.8875    0.0000 C   0  0  0  0  0  0  0  0  0  0  0  0
    1.4289   -3.3000    0.0000 C   0  0  0  0  0  0  0  0  0  0  0  0
    1.4289   -4.1250    0.0000 O   0  0  0  0  0  0  0  0  0  0  0  0
    0.7145   -2.8875    0.0000 C   0  0  0  0  0  0  0  0  0  0  0  0
  1  2  1  0  0  0  0
  2  3  1  0  0  0  0
  2  4  1  0  0  0  0
  4  5  1  0  0  0  0
  5  6  1  0  0  0  0
  6  7  1  0  0  0  0
  6  8  1  0  0  0  0
  8  9  4  0  0  0  0
  9 10  4  0  0  0  0
 10 11  1  0  0  0  0
 10 12  4  0  0  0  0
 12 13  4  0  0  0  0
 13 14  1  0  0  0  0
 13 15  4  0  0  0  0
  8 15  4  0  0  0  0
M  END

> <ChembankId>
1252

> <SMILES>
CC(C)NCC(O)c1cc(O)cc(O)c1

> <InChI>
1/C11H17NO3/c1-7(2)12-6-11(15)8-3-9(13)5-10(14)4-8/h3-5,7,11-15H,6H2,1-2H3

$$$$
1256
  Marvin  11101114192D          

 17 18  0  0  0  0            999 V2000
    2.0367   -1.2991    0.0000 C   0  0  0  0  0  0  0  0  0  0  0  0
    2.0367   -2.1241    0.0000 C   0  0  0  0  0  0  0  0  0  0  0  0
    2.7041   -2.6090    0.0000 C   0  0  0  0  0  0  0  0  0  0  0  0
    2.4492   -3.3937    0.0000 C   0  0  0  0  0  0  0  0  0  0  0  0
    2.9341   -4.0611    0.0000 N   0  0  0  0  0  0  0  0  0  0  0  0
    2.5986   -4.8148    0.0000 S   0  0  0  0  0  0  0  0  0  0  0  0
    1.8449   -4.4792    0.0000 O   0  0  0  0  0  0  0  0  0  0  0  0
    3.3522   -5.1503    0.0000 O   0  0  0  0  0  0  0  0  0  0  0  0
    2.2630   -5.5684    0.0000 C   0  0  0  0  0  0  0  0  0  0  0  0
    2.7479   -6.2359    0.0000 C   0  0  0  0  0  0  0  0  0  0  0  0
    2.4124   -6.9896    0.0000 C   0  0  0  0  0  0  0  0  0  0  0  0
    1.5919   -7.0758    0.0000 C   0  0  0  0  0  0  0  0  0  0  0  0
    1.2563   -7.8295    0.0000 N   0  0  0  0  0  0  0  0  0  0  0  0
    1.1070   -6.4084    0.0000 C   0  0  0  0  0  0  0  0  0  0  0  0
    1.4425   -5.6547    0.0000 C   0  0  0  0  0  0  0  0  0  0  0  0
    1.6242   -3.3937    0.0000 N   0  0  0  0  0  0  0  0  0  0  0  0
    1.3693   -2.6090    0.0000 O   0  0  0  0  0  0  0  0  0  0  0  0
  1  2  1  0  0  0  0
  2  3  4  0  0  0  0
  3  4  4  0  0  0  0
  4  5  1  0  0  0  0
  5  6  1  0  0  0  0
  6  7  2  0  0  0  0
  6  8  2  0  0  0  0
  6  9  1  0  0  0  0
  9 10  4  0  0  0  0
 10 11  4  0  0  0  0
 11 12  4  0  0  0  0
 12 13  1  0  0  0  0
 12 14  4  0  0  0  0
 14 15  4  0  0  0  0
  9 15  4  0  0  0  0
  4 16  4  0  0  0  0
 16 17  4  0  0  0  0
  2 17  4  0  0  0  0
M  END

> <ChembankId>
1256

> <SMILES>
Cc1cc(NS(=O)(=O)c2ccc(N)cc2)no1

> <InChI>
1/C10H11N3O3S/c1-7-6-10(12-16-7)13-17(14,15)9-4-2-8(11)3-5-9/h2-6H,11H2,1H3,(H,12,13)

$$$$
1257
  Marvin  11101114192D          

 36 36  0  0  0  0            999 V2000
    2.4306   -3.0209    0.0000 C   0  0  0  0  0  0  0  0  0  0  0  0
    1.6297   -3.2191    0.0000 C   0  0  0  0  0  0  0  0  0  0  0  0
    1.0577   -2.6246    0.0000 N   0  3  0  0  0  0  0  0  0  0  0  0
    1.6522   -2.0526    0.0000 C   0  0  0  0  0  0  0  0  0  0  0  0
    2.4448   -2.2814    0.0000 C   0  0  0  0  0  0  0  0  0  0  0  0
    0.4632   -3.1966    0.0000 C   0  0  0  0  0  0  0  0  0  0  0  0
   -0.3294   -2.9678    0.0000 C   0  0  0  0  0  0  0  0  0  0  0  0
    0.4857   -2.0301    0.0000 C   0  0  0  0  0  0  0  0  0  0  0  0
   -0.3152   -2.2283    0.0000 C   0  0  0  0  0  0  0  0  0  0  0  0
   -0.8872   -1.6338    0.0000 O   0  0  0  0  0  0  0  0  0  0  0  0
   -0.6584   -0.8412    0.0000 C   0  0  0  0  0  0  0  0  0  0  0  0
   -1.2304   -0.2467    0.0000 C   0  0  0  0  0  0  0  0  0  0  0  0
   -1.0016    0.5459    0.0000 C   0  0  0  0  0  0  0  0  0  0  0  0
   -0.2008    0.7441    0.0000 C   0  0  0  0  0  0  0  0  0  0  0  0
    0.3713    0.1496    0.0000 C   0  0  0  0  0  0  0  0  0  0  0  0
    1.1721    0.3478    0.0000 O   0  0  0  0  0  0  0  0  0  0  0  0
    1.4009    1.1404    0.0000 C   0  0  0  0  0  0  0  0  0  0  0  0
    0.8289    1.7349    0.0000 C   0  0  0  0  0  0  0  0  0  0  0  0
    1.0577    2.5275    0.0000 N   0  3  0  0  0  0  0  0  0  0  0  0
    1.2865    3.3201    0.0000 C   0  0  0  0  0  0  0  0  0  0  0  0
    0.7145    3.9146    0.0000 C   0  0  0  0  0  0  0  0  0  0  0  0
    1.8503    2.2987    0.0000 C   0  0  0  0  0  0  0  0  0  0  0  0
    2.4448    2.8707    0.0000 C   0  0  0  0  0  0  0  0  0  0  0  0
    0.2651    2.7563    0.0000 C   0  0  0  0  0  0  0  0  0  0  0  0
    0.0669    3.5572    0.0000 C   0  0  0  0  0  0  0  0  0  0  0  0
    0.1424   -0.6430    0.0000 C   0  0  0  0  0  0  0  0  0  0  0  0
    0.7145   -1.2375    0.0000 O   0  0  0  0  0  0  0  0  0  0  0  0
    1.5153   -1.0393    0.0000 C   0  0  0  0  0  0  0  0  0  0  0  0
    2.0874   -1.6338    0.0000 C   0  0  0  0  0  0  0  0  0  0  0  0
    2.8882   -1.4357    0.0000 N   0  3  0  0  0  0  0  0  0  0  0  0
    2.6900   -0.6348    0.0000 C   0  0  0  0  0  0  0  0  0  0  0  0
    3.2845   -0.0628    0.0000 C   0  0  0  0  0  0  0  0  0  0  0  0
    3.0864   -2.2365    0.0000 C   0  0  0  0  0  0  0  0  0  0  0  0
    3.8790   -2.4653    0.0000 C   0  0  0  0  0  0  0  0  0  0  0  0
    3.6891   -1.2375    0.0000 C   0  0  0  0  0  0  0  0  0  0  0  0
    4.2611   -1.8320    0.0000 C   0  0  0  0  0  0  0  0  0  0  0  0
  1  2  1  0  0  0  0
  2  3  1  0  0  0  0
  3  4  1  0  0  0  0
  4  5  1  0  0  0  0
  3  6  1  0  0  0  0
  6  7  1  0  0  0  0
  3  8  1  0  0  0  0
  8  9  1  0  0  0  0
  9 10  1  0  0  0  0
 10 11  1  0  0  0  0
 11 12  4  0  0  0  0
 12 13  4  0  0  0  0
 13 14  4  0  0  0  0
 14 15  4  0  0  0  0
 15 16  1  0  0  0  0
 16 17  1  0  0  0  0
 17 18  1  0  0  0  0
 18 19  1  0  0  0  0
 19 20  1  0  0  0  0
 20 21  1  0  0  0  0
 19 22  1  0  0  0  0
 22 23  1  0  0  0  0
 19 24  1  0  0  0  0
 24 25  1  0  0  0  0
 15 26  4  0  0  0  0
 11 26  4  0  0  0  0
 26 27  1  0  0  0  0
 27 28  1  0  0  0  0
 28 29  1  0  0  0  0
 29 30  1  0  0  0  0
 30 31  1  0  0  0  0
 31 32  1  0  0  0  0
 30 33  1  0  0  0  0
 33 34  1  0  0  0  0
 30 35  1  0  0  0  0
 35 36  1  0  0  0  0
M  CHG  3   3   1  19   1  30   1
M  END

> <ChembankId>
1257

> <SMILES>
CC[N+](CC)(CC)CCOc1cccc(OCC[N+](CC)(CC)CC)c1OCC[N+](CC)(CC)CC

> <InChI>
1/C30H60N3O3/c1-10-31(11-2,12-3)22-25-34-28-20-19-21-29(35-26-23-32(13-4,14-5)15-6)30(28)36-27-24-33(16-7,17-8)18-9/h19-21H,10-18,22-27H2,1-9H3/q+3

$$$$
1259
  Marvin  11101114192D          

 17 18  0  0  0  0            999 V2000
    0.0000    0.0000    0.0000 C   0  0  0  0  0  0  0  0  0  0  0  0
    0.7145   -0.4125    0.0000 C   0  0  0  0  0  0  0  0  0  0  0  0
    0.7145   -1.2375    0.0000 C   0  0  0  0  0  0  0  0  0  0  0  0
    1.4289   -1.6500    0.0000 N   0  0  0  0  0  0  0  0  0  0  0  0
    1.4289   -2.4750    0.0000 C   0  0  0  0  0  0  0  0  0  0  0  0
    2.1434   -2.8875    0.0000 N   0  0  0  0  0  0  0  0  0  0  0  0
    0.7145   -2.8875    0.0000 N   0  0  0  0  0  0  0  0  0  0  0  0
    0.0000   -2.4750    0.0000 C   0  0  0  0  0  0  0  0  0  0  0  0
   -0.7145   -2.8875    0.0000 N   0  0  0  0  0  0  0  0  0  0  0  0
    0.0000   -1.6500    0.0000 C   0  0  0  0  0  0  0  0  0  0  0  0
   -0.7145   -1.2375    0.0000 C   0  0  0  0  0  0  0  0  0  0  0  0
   -1.4289   -1.6500    0.0000 C   0  0  0  0  0  0  0  0  0  0  0  0
   -2.1434   -1.2375    0.0000 C   0  0  0  0  0  0  0  0  0  0  0  0
   -2.1434   -0.4125    0.0000 C   0  0  0  0  0  0  0  0  0  0  0  0
   -2.8579    0.0000    0.0000 Cl  0  0  0  0  0  0  0  0  0  0  0  0
   -1.4289   -0.0000    0.0000 C   0  0  0  0  0  0  0  0  0  0  0  0
   -0.7145   -0.4125    0.0000 C   0  0  0  0  0  0  0  0  0  0  0  0
  1  2  1  0  0  0  0
  2  3  1  0  0  0  0
  3  4  4  0  0  0  0
  4  5  4  0  0  0  0
  5  6  1  0  0  0  0
  5  7  4  0  0  0  0
  7  8  4  0  0  0  0
  8  9  1  0  0  0  0
  8 10  4  0  0  0  0
  3 10  4  0  0  0  0
 10 11  1  0  0  0  0
 11 12  4  0  0  0  0
 12 13  4  0  0  0  0
 13 14  4  0  0  0  0
 14 15  1  0  0  0  0
 14 16  4  0  0  0  0
 16 17  4  0  0  0  0
 11 17  4  0  0  0  0
M  END

> <ChembankId>
1259

> <SMILES>
CCc1nc(N)nc(N)c1c2ccc(Cl)cc2

> <InChI>
1/C12H13ClN4/c1-2-9-10(11(14)17-12(15)16-9)7-3-5-8(13)6-4-7/h3-6H,2H2,1H3,(H4,14,15,16,17)

$$$$
1262
  Marvin  11101114192D          

 11 11  0  0  0  0            999 V2000
    1.4289   -1.6500    0.0000 N   0  0  0  0  0  0  0  0  0  0  0  0
    0.7145   -1.2375    0.0000 C   0  0  0  0  0  0  0  0  0  0  0  0
    0.7145   -0.4125    0.0000 C   0  0  1  0  0  0  0  0  0  0  0  0
   -0.0000    0.0000    0.0000 C   0  0  0  0  0  0  0  0  0  0  0  0
    0.0000    0.8250    0.0000 C   0  0  0  0  0  0  0  0  0  0  0  0
    0.7145    1.2375    0.0000 C   0  0  1  0  0  0  0  0  0  0  0  0
    1.4289    0.8250    0.0000 C   0  0  0  0  0  0  0  0  0  0  0  0
    1.4289    0.0000    0.0000 C   0  0  0  0  0  0  0  0  0  0  0  0
    0.7145    2.0625    0.0000 C   0  0  0  0  0  0  0  0  0  0  0  0
    0.0000    2.4750    0.0000 O   0  0  0  0  0  0  0  0  0  0  0  0
    1.4289    2.4750    0.0000 O   0  0  0  0  0  0  0  0  0  0  0  0
  1  2  1  0  0  0  0
  3  2  1  1  0  0  0
  3  4  1  0  0  0  0
  4  5  1  0  0  0  0
  5  6  1  0  0  0  0
  6  7  1  0  0  0  0
  7  8  1  0  0  0  0
  3  8  1  0  0  0  0
  6  9  1  6  0  0  0
  9 10  2  0  0  0  0
  9 11  1  0  0  0  0
M  END

> <ChembankId>
1262

> <SMILES>
NC[C@H]1CC[C@@H](CC1)C(=O)O

> <InChI>
1/C8H15NO2/c9-5-6-1-3-7(4-2-6)8(10)11/h6-7H,1-5,9H2,(H,10,11)

$$$$
1263
  Marvin  11101114192D          

 20 23  0  0  1  0            999 V2000
    4.5141   -0.9039    0.0000 C   0  0  0  0  0  0  0  0  0  0  0  0
    3.8256   -0.4493    0.0000 C   0  0  2  0  0  0  0  0  0  0  0  0
    3.1064   -0.8804    0.0000 C   0  0  0  0  0  0  0  0  0  0  0  0
    2.5429   -0.2609    0.0000 C   0  0  0  0  0  0  0  0  0  0  0  0
    2.6391    0.5940    0.0000 C   0  0  1  0  0  0  0  0  0  0  0  0
    1.8064    0.8267    0.0000 C   0  0  1  0  0  0  0  0  0  0  0  0
    1.2462    0.2211    0.0000 C   0  0  0  0  0  0  0  0  0  0  0  0
    1.5179    1.6168    0.0000 C   0  0  0  0  0  0  0  0  0  0  0  0
    0.7354    1.8782    0.0000 O   0  0  0  0  0  0  0  0  0  0  0  0
    2.2230    2.0744    0.0000 O   0  0  0  0  0  0  0  0  0  0  0  0
    3.0379    1.8038    0.0000 C   0  0  2  0  0  0  0  0  0  0  0  0
    3.9705    1.5831    0.0000 O   0  0  0  0  0  0  0  0  0  0  0  0
    4.8026    1.7960    0.0000 C   0  0  1  0  0  0  0  0  0  0  0  0
    5.4880    2.2551    0.0000 C   0  0  0  0  0  0  0  0  0  0  0  0
    5.2883    1.0982    0.0000 C   0  0  0  0  0  0  0  0  0  0  0  0
    4.7995    0.4092    0.0000 C   0  0  0  0  0  0  0  0  0  0  0  0
    3.9421    0.3980    0.0000 C   0  0  2  0  0  0  0  0  0  0  0  0
    3.3814    1.0934    0.0000 C   0  0  1  0  0  0  0  0  0  0  0  0
    3.6200    2.0443    0.0000 O   0  0  0  0  0  0  0  0  0  0  0  0
    4.3462    2.5046    0.0000 O   0  0  0  0  0  0  0  0  0  0  0  0
  2  1  1  6  0  0  0
  2  3  1  0  0  0  0
  3  4  1  0  0  0  0
  5  4  1  1  0  0  0
  5  6  1  0  0  0  0
  6  7  1  1  0  0  0
  6  8  1  0  0  0  0
  8  9  2  0  0  0  0
  8 10  1  0  0  0  0
 10 11  1  0  0  0  0
 11 12  1  6  0  0  0
 12 13  1  0  0  0  0
 13 14  1  1  0  0  0
 13 15  1  0  0  0  0
 15 16  1  0  0  0  0
 17 16  1  1  0  0  0
  2 17  1  0  0  0  0
 17 18  1  0  0  0  0
  5 18  1  0  0  0  0
 11 18  1  0  0  0  0
 18 19  1  6  0  0  0
 19 20  1  0  0  0  0
 13 20  1  0  0  0  0
M  END

> <ChembankId>
1263

> <SMILES>
C[C@@H]1CC[C@H]2[C@@H](C)C(=O)O[C@@H]3O[C@@]4(C)CC[C@@H]1[C@@]23OO4

> <InChI>
1/C15H22O5/c1-8-4-5-11-9(2)12(16)17-13-15(11)10(8)6-7-14(3,18-13)19-20-15/h8-11,13H,4-7H2,1-3H3

$$$$
1265
  Marvin  11101114192D          

 30 33  0  0  1  0            999 V2000
   -0.1512    2.3914    0.0000 C   0  0  0  0  0  0  0  0  0  0  0  0
   -0.8863    2.0169    0.0000 C   0  0  0  0  0  0  0  0  0  0  0  0
   -1.6213    2.3914    0.0000 O   0  0  0  0  0  0  0  0  0  0  0  0
   -2.2047    1.8080    0.0000 N   0  0  0  0  0  0  0  0  0  0  0  0
   -1.8302    1.0730    0.0000 C   0  0  0  0  0  0  0  0  0  0  0  0
   -1.0153    1.2020    0.0000 C   0  0  0  0  0  0  0  0  0  0  0  0
   -0.4319    0.6187    0.0000 C   0  0  0  0  0  0  0  0  0  0  0  0
   -0.6455   -0.1782    0.0000 O   0  0  0  0  0  0  0  0  0  0  0  0
    0.3649    0.8322    0.0000 N   0  0  0  0  0  0  0  0  0  0  0  0
    0.9483    0.2488    0.0000 C   0  0  1  0  0  0  0  0  0  0  0  0
    1.7733    0.2488    0.0000 C   0  0  1  0  0  0  0  0  0  0  0  0
    2.5579    0.5038    0.0000 S   0  0  0  0  0  0  0  0  0  0  0  0
    3.0428   -0.1637    0.0000 C   0  0  0  0  0  0  0  0  0  0  0  0
    3.6559   -0.7157    0.0000 C   0  0  0  0  0  0  0  0  0  0  0  0
    3.6559    0.3884    0.0000 C   0  0  0  0  0  0  0  0  0  0  0  0
    2.5579   -0.8311    0.0000 C   0  0  1  0  0  0  0  0  0  0  0  0
    1.7733   -0.5762    0.0000 N   0  0  0  0  0  0  0  0  0  0  0  0
    0.9483   -0.5762    0.0000 C   0  0  0  0  0  0  0  0  0  0  0  0
    0.3649   -1.1595    0.0000 O   0  0  0  0  0  0  0  0  0  0  0  0
    2.8129   -1.6157    0.0000 C   0  0  0  0  0  0  0  0  0  0  0  0
    3.6198   -1.7873    0.0000 O   0  0  0  0  0  0  0  0  0  0  0  0
    2.2608   -2.2288    0.0000 O   0  0  0  0  0  0  0  0  0  0  0  0
   -2.2047    0.3379    0.0000 C   0  0  0  0  0  0  0  0  0  0  0  0
   -1.7554   -0.3540    0.0000 C   0  0  0  0  0  0  0  0  0  0  0  0
   -0.9315   -0.3108    0.0000 Cl  0  0  0  0  0  0  0  0  0  0  0  0
   -2.1299   -1.0891    0.0000 C   0  0  0  0  0  0  0  0  0  0  0  0
   -2.9538   -1.1323    0.0000 C   0  0  0  0  0  0  0  0  0  0  0  0
   -3.4031   -0.4404    0.0000 C   0  0  0  0  0  0  0  0  0  0  0  0
   -3.0286    0.2947    0.0000 C   0  0  0  0  0  0  0  0  0  0  0  0
   -3.4779    0.9866    0.0000 Cl  0  0  0  0  0  0  0  0  0  0  0  0
  1  2  1  0  0  0  0
  2  3  4  0  0  0  0
  3  4  4  0  0  0  0
  4  5  4  0  0  0  0
  5  6  4  0  0  0  0
  2  6  4  0  0  0  0
  6  7  1  0  0  0  0
  7  8  2  0  0  0  0
  7  9  1  0  0  0  0
 10  9  1  1  0  0  0
 10 11  1  0  0  0  0
 11 12  1  0  0  0  0
 12 13  1  0  0  0  0
 13 14  1  0  0  0  0
 13 15  1  0  0  0  0
 13 16  1  0  0  0  0
 16 17  1  0  0  0  0
 11 17  1  1  0  0  0
 17 18  1  0  0  0  0
 10 18  1  0  0  0  0
 18 19  2  0  0  0  0
 16 20  1  6  0  0  0
 20 21  2  0  0  0  0
 20 22  1  0  0  0  0
  5 23  1  0  0  0  0
 23 24  4  0  0  0  0
 24 25  1  0  0  0  0
 24 26  4  0  0  0  0
 26 27  4  0  0  0  0
 27 28  4  0  0  0  0
 28 29  4  0  0  0  0
 23 29  4  0  0  0  0
 29 30  1  0  0  0  0
M  END

> <ChembankId>
1265

> <SMILES>
Cc1onc(c1C(=O)N[C@H]2[C@H]3SC(C)(C)[C@@H](N3C2=O)C(=O)O)c4c(Cl)cccc4Cl

> <InChI>
1/C19H17Cl2N3O5S/c1-7-10(12(23-29-7)11-8(20)5-4-6-9(11)21)15(25)22-13-16(26)24-14(18(27)28)19(2,3)30-17(13)24/h4-6,13-14,17H,1-3H3,(H,22,25)(H,27,28)

$$$$
1266
  Marvin  11101114192D          

 19 21  0  0  0  0            999 V2000
    2.1434   -2.8875    0.0000 C   0  0  0  0  0  0  0  0  0  0  0  0
    1.4289   -2.4750    0.0000 C   0  0  0  0  0  0  0  0  0  0  0  0
    1.4289   -1.6500    0.0000 N   0  0  0  0  0  0  0  0  0  0  0  0
    0.7145   -1.2375    0.0000 C   0  0  0  0  0  0  0  0  0  0  0  0
    0.7145   -0.4125    0.0000 C   0  0  0  0  0  0  0  0  0  0  0  0
    0.0000    0.0000    0.0000 C   0  0  0  0  0  0  0  0  0  0  0  0
   -0.7145   -0.4125    0.0000 O   0  0  0  0  0  0  0  0  0  0  0  0
    0.0000    0.8250    0.0000 O   0  0  0  0  0  0  0  0  0  0  0  0
    1.4289    0.0000    0.0000 C   0  0  0  0  0  0  0  0  0  0  0  0
    1.4289    0.8250    0.0000 O   0  0  0  0  0  0  0  0  0  0  0  0
    2.1434   -0.4125    0.0000 C   0  0  0  0  0  0  0  0  0  0  0  0
    2.8579    0.0000    0.0000 C   0  0  0  0  0  0  0  0  0  0  0  0
    3.5724   -0.4125    0.0000 C   0  0  0  0  0  0  0  0  0  0  0  0
    4.3570   -0.1576    0.0000 O   0  0  0  0  0  0  0  0  0  0  0  0
    4.8419   -0.8250    0.0000 C   0  0  0  0  0  0  0  0  0  0  0  0
    4.3570   -1.4924    0.0000 O   0  0  0  0  0  0  0  0  0  0  0  0
    3.5724   -1.2375    0.0000 C   0  0  0  0  0  0  0  0  0  0  0  0
    2.8579   -1.6500    0.0000 C   0  0  0  0  0  0  0  0  0  0  0  0
    2.1434   -1.2375    0.0000 C   0  0  0  0  0  0  0  0  0  0  0  0
  1  2  1  0  0  0  0
  2  3  1  0  0  0  0
  3  4  4  0  0  0  0
  4  5  4  0  0  0  0
  5  6  1  0  0  0  0
  6  7  2  0  0  0  0
  6  8  1  0  0  0  0
  5  9  4  0  0  0  0
  9 10  2  0  0  0  0
  9 11  4  0  0  0  0
 11 12  4  0  0  0  0
 12 13  4  0  0  0  0
 13 14  1  0  0  0  0
 14 15  1  0  0  0  0
 15 16  1  0  0  0  0
 16 17  1  0  0  0  0
 13 17  4  0  0  0  0
 17 18  4  0  0  0  0
 18 19  4  0  0  0  0
  3 19  4  0  0  0  0
 11 19  4  0  0  0  0
M  END

> <ChembankId>
1266

> <SMILES>
CCn1cc(C(=O)O)c(=O)c2cc3OCOc3cc12

> <InChI>
1/C13H11NO5/c1-2-14-5-8(13(16)17)12(15)7-3-10-11(4-9(7)14)19-6-18-10/h3-5H,2,6H2,1H3,(H,16,17)

$$$$
1267
  Marvin  11101114192D          

 11 11  0  0  0  0            999 V2000
    1.4289   -2.4750    0.0000 C   0  0  0  0  0  0  0  0  0  0  0  0
    1.4289   -1.6500    0.0000 C   0  0  0  0  0  0  0  0  0  0  0  0
    2.1434   -1.2375    0.0000 O   0  0  0  0  0  0  0  0  0  0  0  0
    0.7145   -1.2375    0.0000 N   0  0  0  0  0  0  0  0  0  0  0  0
    0.7145   -0.4125    0.0000 C   0  0  0  0  0  0  0  0  0  0  0  0
   -0.0000    0.0000    0.0000 C   0  0  0  0  0  0  0  0  0  0  0  0
    0.0000    0.8250    0.0000 C   0  0  0  0  0  0  0  0  0  0  0  0
    0.7145    1.2375    0.0000 C   0  0  0  0  0  0  0  0  0  0  0  0
    0.7145    2.0625    0.0000 O   0  0  0  0  0  0  0  0  0  0  0  0
    1.4289    0.8250    0.0000 C   0  0  0  0  0  0  0  0  0  0  0  0
    1.4289    0.0000    0.0000 C   0  0  0  0  0  0  0  0  0  0  0  0
  1  2  1  0  0  0  0
  2  3  2  0  0  0  0
  2  4  1  0  0  0  0
  4  5  1  0  0  0  0
  5  6  4  0  0  0  0
  6  7  4  0  0  0  0
  7  8  4  0  0  0  0
  8  9  1  0  0  0  0
  8 10  4  0  0  0  0
 10 11  4  0  0  0  0
  5 11  4  0  0  0  0
M  END

> <ChembankId>
1267

> <SMILES>
CC(=O)Nc1ccc(O)cc1

> <InChI>
1/C8H9NO2/c1-6(10)9-7-2-4-8(11)5-3-7/h2-5,11H,1H3,(H,9,10)

$$$$
1268
  Marvin  11101114192D          

 23 25  0  0  0  0            999 V2000
    0.0000   -1.6500    0.0000 C   0  0  0  0  0  0  0  0  0  0  0  0
    0.7145   -1.2375    0.0000 N   0  0  0  0  0  0  0  0  0  0  0  0
    0.7145   -0.4125    0.0000 C   0  0  0  0  0  0  0  0  0  0  0  0
    1.4289    0.0000    0.0000 C   0  0  0  0  0  0  0  0  0  0  0  0
    1.4289    0.8250    0.0000 O   0  0  0  0  0  0  0  0  0  0  0  0
    2.1434   -0.4125    0.0000 C   0  0  0  0  0  0  0  0  0  0  0  0
    2.8579    0.0000    0.0000 C   0  0  0  0  0  0  0  0  0  0  0  0
    3.5724   -0.4125    0.0000 C   0  0  0  0  0  0  0  0  0  0  0  0
    3.5724   -1.2375    0.0000 C   0  0  0  0  0  0  0  0  0  0  0  0
    2.8579   -1.6500    0.0000 C   0  0  0  0  0  0  0  0  0  0  0  0
    2.1434   -1.2375    0.0000 C   0  0  0  0  0  0  0  0  0  0  0  0
    1.4289   -1.6500    0.0000 S   0  0  0  0  0  0  0  0  0  0  0  0
    1.8163   -2.3784    0.0000 O   0  0  0  0  0  0  0  0  0  0  0  0
    1.0416   -2.3784    0.0000 O   0  0  0  0  0  0  0  0  0  0  0  0
    0.0000    0.0000    0.0000 C   0  0  0  0  0  0  0  0  0  0  0  0
    0.0000    0.8250    0.0000 O   0  0  0  0  0  0  0  0  0  0  0  0
   -0.7145   -0.4125    0.0000 N   0  0  0  0  0  0  0  0  0  0  0  0
   -1.4289   -0.0000    0.0000 C   0  0  0  0  0  0  0  0  0  0  0  0
   -2.1826   -0.3356    0.0000 C   0  0  0  0  0  0  0  0  0  0  0  0
   -2.7346    0.2775    0.0000 C   0  0  0  0  0  0  0  0  0  0  0  0
   -3.5551    0.1913    0.0000 C   0  0  0  0  0  0  0  0  0  0  0  0
   -2.3221    0.9920    0.0000 O   0  0  0  0  0  0  0  0  0  0  0  0
   -1.5152    0.8205    0.0000 N   0  0  0  0  0  0  0  0  0  0  0  0
  1  2  1  0  0  0  0
  2  3  1  0  0  0  0
  3  4  2  0  0  0  0
  4  5  1  0  0  0  0
  4  6  1  0  0  0  0
  6  7  4  0  0  0  0
  7  8  4  0  0  0  0
  8  9  4  0  0  0  0
  9 10  4  0  0  0  0
 10 11  4  0  0  0  0
  6 11  4  0  0  0  0
 11 12  1  0  0  0  0
  2 12  1  0  0  0  0
 12 13  2  0  0  0  0
 12 14  2  0  0  0  0
  3 15  1  0  0  0  0
 15 16  2  0  0  0  0
 15 17  1  0  0  0  0
 17 18  1  0  0  0  0
 18 19  4  0  0  0  0
 19 20  4  0  0  0  0
 20 21  1  0  0  0  0
 20 22  4  0  0  0  0
 22 23  4  0  0  0  0
 18 23  4  0  0  0  0
M  END

> <ChembankId>
1268

> <SMILES>
CN1C(=C(O)c2ccccc2S1(=O)=O)C(=O)Nc3cc(C)on3

> <InChI>
1/C14H13N3O5S/c1-8-7-11(16-22-8)15-14(19)12-13(18)9-5-3-4-6-10(9)23(20,21)17(12)2/h3-7,18H,1-2H3,(H,15,16,19)

$$$$
1270
  Marvin  11101114192D          

 14 13  0  0  0  0            999 V2000
    2.2836   -2.9684    0.0000 C   0  0  0  0  0  0  0  0  0  0  0  0
    2.9980   -2.5559    0.0000 N   0  3  0  0  0  0  0  0  0  0  0  0
    3.4105   -3.2704    0.0000 C   0  0  0  0  0  0  0  0  0  0  0  0
    2.5855   -1.8414    0.0000 C   0  0  0  0  0  0  0  0  0  0  0  0
    3.7125   -2.1434    0.0000 C   0  0  0  0  0  0  0  0  0  0  0  0
    4.4270   -2.5559    0.0000 C   0  0  0  0  0  0  0  0  0  0  0  0
    5.1414   -2.1434    0.0000 C   0  0  0  0  0  0  0  0  0  0  0  0
    5.8559   -2.5559    0.0000 C   0  0  0  0  0  0  0  0  0  0  0  0
    6.5704   -2.1434    0.0000 C   0  0  0  0  0  0  0  0  0  0  0  0
    7.2849   -2.5559    0.0000 C   0  0  0  0  0  0  0  0  0  0  0  0
    7.9993   -2.1434    0.0000 N   0  3  0  0  0  0  0  0  0  0  0  0
    8.7138   -1.7309    0.0000 C   0  0  0  0  0  0  0  0  0  0  0  0
    8.4118   -2.8579    0.0000 C   0  0  0  0  0  0  0  0  0  0  0  0
    7.5868   -1.4289    0.0000 C   0  0  0  0  0  0  0  0  0  0  0  0
  1  2  1  0  0  0  0
  2  3  1  0  0  0  0
  2  4  1  0  0  0  0
  2  5  1  0  0  0  0
  5  6  1  0  0  0  0
  6  7  1  0  0  0  0
  7  8  1  0  0  0  0
  8  9  1  0  0  0  0
  9 10  1  0  0  0  0
 10 11  1  0  0  0  0
 11 12  1  0  0  0  0
 11 13  1  0  0  0  0
 11 14  1  0  0  0  0
M  CHG  2   2   1  11   1
M  END

> <ChembankId>
1270

> <SMILES>
C[N+](C)(C)CCCCCC[N+](C)(C)C

> <InChI>
1/C12H30N2/c1-13(2,3)11-9-7-8-10-12-14(4,5)6/h7-12H2,1-6H3/q+2

$$$$
1272
  Marvin  11101114192D          

 25 28  0  0  0  0            999 V2000
    0.2537    1.8107    0.0000 Cl  0  0  0  0  0  0  0  0  0  0  0  0
    0.4252    1.0038    0.0000 C   0  0  0  0  0  0  0  0  0  0  0  0
    1.2502    1.0038    0.0000 C   0  0  0  0  0  0  0  0  0  0  0  0
    1.6627    0.2893    0.0000 C   0  0  0  0  0  0  0  0  0  0  0  0
    1.2502   -0.4252    0.0000 C   0  0  0  0  0  0  0  0  0  0  0  0
    0.4252   -0.4252    0.0000 C   0  0  0  0  0  0  0  0  0  0  0  0
    0.0127    0.2893    0.0000 C   0  0  0  0  0  0  0  0  0  0  0  0
   -0.8123    0.2893    0.0000 C   0  0  0  0  0  0  0  0  0  0  0  0
   -0.8123    1.1143    0.0000 C   0  0  0  0  0  0  0  0  0  0  0  0
   -1.5268    1.5268    0.0000 C   0  0  0  0  0  0  0  0  0  0  0  0
   -1.5268    2.3518    0.0000 C   0  0  0  0  0  0  0  0  0  0  0  0
   -0.8123    2.7643    0.0000 C   0  0  0  0  0  0  0  0  0  0  0  0
   -0.0978    2.3518    0.0000 C   0  0  0  0  0  0  0  0  0  0  0  0
   -0.0978    1.5268    0.0000 C   0  0  0  0  0  0  0  0  0  0  0  0
   -1.6373    0.2893    0.0000 C   0  0  0  0  0  0  0  0  0  0  0  0
   -2.0498   -0.4252    0.0000 C   0  0  0  0  0  0  0  0  0  0  0  0
   -2.8748   -0.4252    0.0000 C   0  0  0  0  0  0  0  0  0  0  0  0
   -3.2873    0.2893    0.0000 C   0  0  0  0  0  0  0  0  0  0  0  0
   -2.8748    1.0038    0.0000 C   0  0  0  0  0  0  0  0  0  0  0  0
   -2.0498    1.0038    0.0000 C   0  0  0  0  0  0  0  0  0  0  0  0
   -0.8123   -0.5357    0.0000 N   0  0  0  0  0  0  0  0  0  0  0  0
   -0.1449   -1.0206    0.0000 C   0  0  0  0  0  0  0  0  0  0  0  0
   -0.3998   -1.8053    0.0000 C   0  0  0  0  0  0  0  0  0  0  0  0
   -1.2248   -1.8053    0.0000 N   0  0  0  0  0  0  0  0  0  0  0  0
   -1.4798   -1.0206    0.0000 C   0  0  0  0  0  0  0  0  0  0  0  0
  1  2  1  0  0  0  0
  2  3  4  0  0  0  0
  3  4  4  0  0  0  0
  4  5  4  0  0  0  0
  5  6  4  0  0  0  0
  6  7  4  0  0  0  0
  2  7  4  0  0  0  0
  7  8  1  0  0  0  0
  8  9  1  0  0  0  0
  9 10  4  0  0  0  0
 10 11  4  0  0  0  0
 11 12  4  0  0  0  0
 12 13  4  0  0  0  0
 13 14  4  0  0  0  0
  9 14  4  0  0  0  0
  8 15  1  0  0  0  0
 15 16  4  0  0  0  0
 16 17  4  0  0  0  0
 17 18  4  0  0  0  0
 18 19  4  0  0  0  0
 19 20  4  0  0  0  0
 15 20  4  0  0  0  0
  8 21  1  0  0  0  0
 21 22  4  0  0  0  0
 22 23  4  0  0  0  0
 23 24  4  0  0  0  0
 24 25  4  0  0  0  0
 21 25  4  0  0  0  0
M  END

> <ChembankId>
1272

> <SMILES>
Clc1ccccc1C(c2ccccc2)(c3ccccc3)n4ccnc4

> <InChI>
1/C22H17ClN2/c23-21-14-8-7-13-20(21)22(25-16-15-24-17-25,18-9-3-1-4-10-18)19-11-5-2-6-12-19/h1-17H

$$$$
1273
  Marvin  11101114192D          

 26 29  0  0  1  0            999 V2000
    3.5330   -3.2587    0.0000 C   0  0  0  0  0  0  0  0  0  0  0  0
    3.8928   -2.5163    0.0000 C   0  0  2  0  0  0  0  0  0  0  0  0
    4.4247   -3.1470    0.0000 C   0  0  0  0  0  0  0  0  0  0  0  0
    5.2368   -3.0018    0.0000 C   0  0  0  0  0  0  0  0  0  0  0  0
    5.7686   -3.6325    0.0000 O   0  0  0  0  0  0  0  0  0  0  0  0
    5.5171   -2.2259    0.0000 C   0  0  0  0  0  0  0  0  0  0  0  0
    4.9853   -1.5952    0.0000 C   0  0  0  0  0  0  0  0  0  0  0  0
    5.2655   -0.8192    0.0000 C   0  0  0  0  0  0  0  0  0  0  0  0
    6.0777   -0.6740    0.0000 C   0  0  0  0  0  0  0  0  0  0  0  0
    6.6095   -1.3047    0.0000 C   0  0  0  0  0  0  0  0  0  0  0  0
    7.4216   -1.1595    0.0000 C   0  0  0  0  0  0  0  0  0  0  0  0
    7.9534   -1.7902    0.0000 C   0  0  0  0  0  0  0  0  0  0  0  0
    8.7655   -1.6450    0.0000 O   0  0  0  0  0  0  0  0  0  0  0  0
    7.6731   -2.5662    0.0000 C   0  0  0  0  0  0  0  0  0  0  0  0
    6.8610   -2.7114    0.0000 C   0  0  0  0  0  0  0  0  0  0  0  0
    6.3292   -2.0807    0.0000 C   0  0  2  0  0  0  0  0  0  0  0  0
    6.0489   -2.8566    0.0000 C   0  0  0  0  0  0  0  0  0  0  0  0
    4.1731   -1.7404    0.0000 C   0  0  0  0  0  0  0  0  0  0  0  0
    3.5218   -1.2340    0.0000 C   0  0  0  0  0  0  0  0  0  0  0  0
    2.8390   -1.6970    0.0000 C   0  0  0  0  0  0  0  0  0  0  0  0
    3.0683   -2.4895    0.0000 C   0  0  1  0  0  0  0  0  0  0  0  0
    2.3074   -2.8084    0.0000 O   0  0  0  0  0  0  0  0  0  0  0  0
    2.9469   -3.3055    0.0000 C   0  0  0  0  0  0  0  0  0  0  0  0
    3.5929   -3.8187    0.0000 O   0  0  0  0  0  0  0  0  0  0  0  0
    2.1795   -3.6084    0.0000 C   0  0  0  0  0  0  0  0  0  0  0  0
    2.0581   -4.4244    0.0000 O   0  0  0  0  0  0  0  0  0  0  0  0
  2  1  1  1  0  0  0
  2  3  1  0  0  0  0
  3  4  1  0  0  0  0
  4  5  2  0  0  0  0
  4  6  1  0  0  0  0
  6  7  1  0  0  0  0
  7  8  1  0  0  0  0
  8  9  1  0  0  0  0
  9 10  1  0  0  0  0
 10 11  2  0  0  0  0
 11 12  1  0  0  0  0
 12 13  2  0  0  0  0
 12 14  1  0  0  0  0
 14 15  2  0  0  0  0
 15 16  1  0  0  0  0
  6 16  1  0  0  0  0
 10 16  1  0  0  0  0
 16 17  1  1  0  0  0
  7 18  1  0  0  0  0
  2 18  1  0  0  0  0
 18 19  1  0  0  0  0
 19 20  1  0  0  0  0
 20 21  1  0  0  0  0
  2 21  1  0  0  0  0
 21 22  1  6  0  0  0
 21 23  1  1  0  0  0
 23 24  2  0  0  0  0
 23 25  1  0  0  0  0
 25 26  1  0  0  0  0
M  END

> <ChembankId>
1273

> <SMILES>
C[C@@]12CC(=O)C3C(CCC4=CC(=O)C=C[C@]34C)C2CC[C@]1(O)C(=O)CO

> <InChI>
1/C21H26O5/c1-19-7-5-13(23)9-12(19)3-4-14-15-6-8-21(26,17(25)11-22)20(15,2)10-16(24)18(14)19/h5,7,9,14-15,18,22,26H,3-4,6,8,10-11H2,1-2H3

$$$$
1274
  Marvin  11101114192D          

 14 16  0  0  1  0            999 V2000
    0.7846   -0.2549    0.0000 C   0  0  0  0  0  0  0  0  0  0  0  0
    1.2695    0.4125    0.0000 C   0  0  0  0  0  0  0  0  0  0  0  0
    2.0542    0.1576    0.0000 N   0  0  0  0  0  0  0  0  0  0  0  0
    2.8388    0.4125    0.0000 C   0  0  0  0  0  0  0  0  0  0  0  0
    3.3237   -0.2549    0.0000 C   0  0  1  0  0  0  0  0  0  0  0  0
    2.8388   -0.9224    0.0000 N   0  0  0  0  0  0  0  0  0  0  0  0
    2.0542   -0.6674    0.0000 C   0  0  0  0  0  0  0  0  0  0  0  0
    1.2695   -0.9224    0.0000 S   0  0  0  0  0  0  0  0  0  0  0  0
    4.1487   -0.2549    0.0000 C   0  0  0  0  0  0  0  0  0  0  0  0
    4.5612    0.4595    0.0000 C   0  0  0  0  0  0  0  0  0  0  0  0
    5.3862    0.4595    0.0000 C   0  0  0  0  0  0  0  0  0  0  0  0
    5.7987   -0.2549    0.0000 C   0  0  0  0  0  0  0  0  0  0  0  0
    5.3862   -0.9694    0.0000 C   0  0  0  0  0  0  0  0  0  0  0  0
    4.5612   -0.9694    0.0000 C   0  0  0  0  0  0  0  0  0  0  0  0
  1  2  1  0  0  0  0
  2  3  1  0  0  0  0
  3  4  1  0  0  0  0
  4  5  1  0  0  0  0
  5  6  1  0  0  0  0
  6  7  2  0  0  0  0
  3  7  1  0  0  0  0
  7  8  1  0  0  0  0
  1  8  1  0  0  0  0
  5  9  1  6  0  0  0
  9 10  4  0  0  0  0
 10 11  4  0  0  0  0
 11 12  4  0  0  0  0
 12 13  4  0  0  0  0
 13 14  4  0  0  0  0
  9 14  4  0  0  0  0
M  END

> <ChembankId>
1274

> <SMILES>
C1CN2C[C@@H](N=C2S1)c3ccccc3

> <InChI>
1/C11H12N2S/c1-2-4-9(5-3-1)10-8-13-6-7-14-11(13)12-10/h1-5,10H,6-8H2

$$$$
1000096
  Marvin  11101114192D          

 14 16  0  0  0  0            999 V2000
    0.7846   -0.2549    0.0000 C   0  0  0  0  0  0  0  0  0  0  0  0
    1.2695    0.4125    0.0000 C   0  0  0  0  0  0  0  0  0  0  0  0
    2.0542    0.1576    0.0000 N   0  0  0  0  0  0  0  0  0  0  0  0
    2.8388    0.4125    0.0000 C   0  0  0  0  0  0  0  0  0  0  0  0
    3.3237   -0.2549    0.0000 C   0  0  0  0  0  0  0  0  0  0  0  0
    2.8388   -0.9224    0.0000 N   0  0  0  0  0  0  0  0  0  0  0  0
    2.0542   -0.6674    0.0000 C   0  0  0  0  0  0  0  0  0  0  0  0
    1.2695   -0.9224    0.0000 S   0  0  0  0  0  0  0  0  0  0  0  0
    4.1487   -0.2549    0.0000 C   0  0  0  0  0  0  0  0  0  0  0  0
    4.5612    0.4595    0.0000 C   0  0  0  0  0  0  0  0  0  0  0  0
    5.3862    0.4595    0.0000 C   0  0  0  0  0  0  0  0  0  0  0  0
    5.7987   -0.2549    0.0000 C   0  0  0  0  0  0  0  0  0  0  0  0
    5.3862   -0.9694    0.0000 C   0  0  0  0  0  0  0  0  0  0  0  0
    4.5612   -0.9694    0.0000 C   0  0  0  0  0  0  0  0  0  0  0  0
  1  2  1  0  0  0  0
  2  3  1  0  0  0  0
  3  4  1  0  0  0  0
  4  5  1  0  0  0  0
  5  6  1  0  0  0  0
  6  7  2  0  0  0  0
  3  7  1  0  0  0  0
  7  8  1  0  0  0  0
  1  8  1  0  0  0  0
  5  9  1  0  0  0  0
  9 10  4  0  0  0  0
 10 11  4  0  0  0  0
 11 12  4  0  0  0  0
 12 13  4  0  0  0  0
 13 14  4  0  0  0  0
  9 14  4  0  0  0  0
M  END

> <ChembankId>
1000096

> <SMILES>
C1CN2CC(N=C2S1)c3ccccc3

> <InChI>
1/C11H12N2S/c1-2-4-9(5-3-1)10-8-13-6-7-14-11(13)12-10/h1-5,10H,6-8H2

$$$$
1291
  Marvin  11101114192D          

 24 24  0  0  0  0            999 V2000
   -5.3329   -2.4750    0.0000 C   0  0  0  0  0  0  0  0  0  0  0  0
   -4.5079   -2.4750    0.0000 C   0  0  0  0  0  0  0  0  0  0  0  0
   -4.0954   -3.1895    0.0000 C   0  0  0  0  0  0  0  0  0  0  0  0
   -3.2704   -3.1895    0.0000 N   0  0  0  0  0  0  0  0  0  0  0  0
   -2.8579   -2.4750    0.0000 C   0  0  0  0  0  0  0  0  0  0  0  0
   -3.2704   -1.7605    0.0000 C   0  0  0  0  0  0  0  0  0  0  0  0
   -2.8579   -1.0461    0.0000 C   0  0  0  0  0  0  0  0  0  0  0  0
   -2.8579   -3.9039    0.0000 C   0  0  0  0  0  0  0  0  0  0  0  0
   -3.2704   -4.6184    0.0000 O   0  0  0  0  0  0  0  0  0  0  0  0
   -2.0329   -3.9039    0.0000 C   0  0  0  0  0  0  0  0  0  0  0  0
   -1.6204   -3.1895    0.0000 C   0  0  0  0  0  0  0  0  0  0  0  0
   -0.7954   -3.1895    0.0000 C   0  0  0  0  0  0  0  0  0  0  0  0
   -0.3829   -2.4750    0.0000 C   0  0  0  0  0  0  0  0  0  0  0  0
   -0.7954   -1.7605    0.0000 O   0  0  0  0  0  0  0  0  0  0  0  0
    0.4421   -2.4750    0.0000 O   0  0  0  0  0  0  0  0  0  0  0  0
   -1.6204   -4.6184    0.0000 N   0  0  0  0  0  0  0  0  0  0  0  0
   -0.7954   -4.6184    0.0000 C   0  0  0  0  0  0  0  0  0  0  0  0
   -0.3829   -3.9039    0.0000 O   0  0  0  0  0  0  0  0  0  0  0  0
   -0.3829   -5.3329    0.0000 C   0  0  0  0  0  0  0  0  0  0  0  0
    0.4421   -5.3329    0.0000 C   0  0  0  0  0  0  0  0  0  0  0  0
    0.8546   -6.0474    0.0000 C   0  0  0  0  0  0  0  0  0  0  0  0
    0.4421   -6.7618    0.0000 C   0  0  0  0  0  0  0  0  0  0  0  0
   -0.3829   -6.7618    0.0000 C   0  0  0  0  0  0  0  0  0  0  0  0
   -0.7954   -6.0474    0.0000 C   0  0  0  0  0  0  0  0  0  0  0  0
  1  2  1  0  0  0  0
  2  3  1  0  0  0  0
  3  4  1  0  0  0  0
  4  5  1  0  0  0  0
  5  6  1  0  0  0  0
  6  7  1  0  0  0  0
  4  8  1  0  0  0  0
  8  9  2  0  0  0  0
  8 10  1  0  0  0  0
 10 11  1  0  0  0  0
 11 12  1  0  0  0  0
 12 13  1  0  0  0  0
 13 14  2  0  0  0  0
 13 15  1  0  0  0  0
 10 16  1  0  0  0  0
 16 17  1  0  0  0  0
 17 18  2  0  0  0  0
 17 19  1  0  0  0  0
 19 20  4  0  0  0  0
 20 21  4  0  0  0  0
 21 22  4  0  0  0  0
 22 23  4  0  0  0  0
 23 24  4  0  0  0  0
 19 24  4  0  0  0  0
M  END

> <ChembankId>
1291

> <SMILES>
CCCN(CCC)C(=O)C(CCC(=O)O)NC(=O)c1ccccc1

> <InChI>
1/C18H26N2O4/c1-3-12-20(13-4-2)18(24)15(10-11-16(21)22)19-17(23)14-8-6-5-7-9-14/h5-9,15H,3-4,10-13H2,1-2H3,(H,19,23)(H,21,22)

$$$$
1295
  Marvin  11101114192D          

 19 19  0  0  0  0            999 V2000
    5.0013   -4.5375    0.0000 O   0  0  0  0  0  0  0  0  0  0  0  0
    5.0013   -3.7125    0.0000 C   0  0  0  0  0  0  0  0  0  0  0  0
    5.7158   -3.3000    0.0000 O   0  0  0  0  0  0  0  0  0  0  0  0
    4.2868   -3.3000    0.0000 C   0  0  0  0  0  0  0  0  0  0  0  0
    4.2868   -2.4750    0.0000 C   0  0  0  0  0  0  0  0  0  0  0  0
    3.5724   -2.0625    0.0000 C   0  0  0  0  0  0  0  0  0  0  0  0
    3.5724   -1.2375    0.0000 C   0  0  0  0  0  0  0  0  0  0  0  0
    2.8579   -0.8250    0.0000 C   0  0  0  0  0  0  0  0  0  0  0  0
    2.8579    0.0000    0.0000 C   0  0  0  0  0  0  0  0  0  0  0  0
    3.5724    0.4125    0.0000 C   0  0  0  0  0  0  0  0  0  0  0  0
    4.2868    0.0000    0.0000 C   0  0  0  0  0  0  0  0  0  0  0  0
    4.2868   -0.8250    0.0000 C   0  0  0  0  0  0  0  0  0  0  0  0
    3.5724    1.2375    0.0000 N   0  0  0  0  0  0  0  0  0  0  0  0
    2.8579    1.6500    0.0000 C   0  0  0  0  0  0  0  0  0  0  0  0
    2.8579    2.4750    0.0000 C   0  0  0  0  0  0  0  0  0  0  0  0
    2.1434    2.8875    0.0000 Cl  0  0  0  0  0  0  0  0  0  0  0  0
    4.2868    1.6500    0.0000 C   0  0  0  0  0  0  0  0  0  0  0  0
    4.2868    2.4750    0.0000 C   0  0  0  0  0  0  0  0  0  0  0  0
    5.0013    2.8875    0.0000 Cl  0  0  0  0  0  0  0  0  0  0  0  0
  1  2  1  0  0  0  0
  2  3  2  0  0  0  0
  2  4  1  0  0  0  0
  4  5  1  0  0  0  0
  5  6  1  0  0  0  0
  6  7  1  0  0  0  0
  7  8  4  0  0  0  0
  8  9  4  0  0  0  0
  9 10  4  0  0  0  0
 10 11  4  0  0  0  0
 11 12  4  0  0  0  0
  7 12  4  0  0  0  0
 10 13  1  0  0  0  0
 13 14  1  0  0  0  0
 14 15  1  0  0  0  0
 15 16  1  0  0  0  0
 13 17  1  0  0  0  0
 17 18  1  0  0  0  0
 18 19  1  0  0  0  0
M  END

> <ChembankId>
1295

> <SMILES>
OC(=O)CCCc1ccc(cc1)N(CCCl)CCCl

> <InChI>
1/C14H19Cl2NO2/c15-8-10-17(11-9-16)13-6-4-12(5-7-13)2-1-3-14(18)19/h4-7H,1-3,8-11H2,(H,18,19)

$$$$
1299
  Marvin  11101114192D          

 14 14  0  0  0  0            999 V2000
   -0.7145   -0.4125    0.0000 N   0  0  0  0  0  0  0  0  0  0  0  0
   -0.0000    0.0000    0.0000 C   0  0  0  0  0  0  0  0  0  0  0  0
   -0.0000    0.8250    0.0000 C   0  0  0  0  0  0  0  0  0  0  0  0
    0.7145    1.2375    0.0000 C   0  0  0  0  0  0  0  0  0  0  0  0
    1.4289    0.8250    0.0000 C   0  0  0  0  0  0  0  0  0  0  0  0
    1.4289    0.0000    0.0000 C   0  0  0  0  0  0  0  0  0  0  0  0
    0.7145   -0.4125    0.0000 C   0  0  0  0  0  0  0  0  0  0  0  0
    2.1434    1.2375    0.0000 C   0  0  0  0  0  0  0  0  0  0  0  0
    2.1434    2.0625    0.0000 O   0  0  0  0  0  0  0  0  0  0  0  0
    2.8579    0.8250    0.0000 N   0  0  0  0  0  0  0  0  0  0  0  0
    3.5724    1.2375    0.0000 C   0  0  0  0  0  0  0  0  0  0  0  0
    4.2868    0.8250    0.0000 C   0  0  0  0  0  0  0  0  0  0  0  0
    5.0013    1.2375    0.0000 O   0  0  0  0  0  0  0  0  0  0  0  0
    4.2868    0.0000    0.0000 O   0  0  0  0  0  0  0  0  0  0  0  0
  1  2  1  0  0  0  0
  2  3  4  0  0  0  0
  3  4  4  0  0  0  0
  4  5  4  0  0  0  0
  5  6  4  0  0  0  0
  6  7  4  0  0  0  0
  2  7  4  0  0  0  0
  5  8  1  0  0  0  0
  8  9  2  0  0  0  0
  8 10  1  0  0  0  0
 10 11  1  0  0  0  0
 11 12  1  0  0  0  0
 12 13  2  0  0  0  0
 12 14  1  0  0  0  0
M  END

> <ChembankId>
1299

> <SMILES>
Nc1ccc(cc1)C(=O)NCC(=O)O

> <InChI>
1/C9H10N2O3/c10-7-3-1-6(2-4-7)9(14)11-5-8(12)13/h1-4H,5,10H2,(H,11,14)(H,12,13)

$$$$
1300
  Marvin  11101114192D          

  9  9  0  0  0  0            999 V2000
   -0.0000    2.4750    0.0000 O   0  0  0  0  0  0  0  0  0  0  0  0
    0.7145    2.0625    0.0000 C   0  0  0  0  0  0  0  0  0  0  0  0
    1.4289    2.4750    0.0000 O   0  0  0  0  0  0  0  0  0  0  0  0
    0.7145    1.2375    0.0000 C   0  0  0  0  0  0  0  0  0  0  0  0
    1.4289    0.8250    0.0000 C   0  0  0  0  0  0  0  0  0  0  0  0
    1.4289    0.0000    0.0000 C   0  0  0  0  0  0  0  0  0  0  0  0
    0.7145   -0.4125    0.0000 C   0  0  0  0  0  0  0  0  0  0  0  0
    0.0000   -0.0000    0.0000 N   0  0  0  0  0  0  0  0  0  0  0  0
   -0.0000    0.8250    0.0000 C   0  0  0  0  0  0  0  0  0  0  0  0
  1  2  1  0  0  0  0
  2  3  2  0  0  0  0
  2  4  1  0  0  0  0
  4  5  4  0  0  0  0
  5  6  4  0  0  0  0
  6  7  4  0  0  0  0
  7  8  4  0  0  0  0
  8  9  4  0  0  0  0
  4  9  4  0  0  0  0
M  END

> <ChembankId>
1300

> <SMILES>
OC(=O)c1cccnc1

> <InChI>
1/C6H5NO2/c8-6(9)5-2-1-3-7-4-5/h1-4H,(H,8,9)

$$$$
1301
  Marvin  11101114192D          

 36 39  0  0  0  0            999 V2000
   -0.7145   -6.1875    0.0000 O   0  0  0  0  0  0  0  0  0  0  0  0
   -1.4289   -5.7750    0.0000 C   0  0  0  0  0  0  0  0  0  0  0  0
   -1.4289   -4.9500    0.0000 C   0  0  0  0  0  0  0  0  0  0  0  0
   -2.1434   -4.5375    0.0000 N   0  0  0  0  0  0  0  0  0  0  0  0
   -2.8579   -4.9500    0.0000 C   0  0  0  0  0  0  0  0  0  0  0  0
   -2.8579   -5.7750    0.0000 C   0  0  0  0  0  0  0  0  0  0  0  0
   -3.5724   -6.1875    0.0000 O   0  0  0  0  0  0  0  0  0  0  0  0
   -2.1434   -3.7125    0.0000 C   0  0  0  0  0  0  0  0  0  0  0  0
   -2.8579   -3.3000    0.0000 N   0  0  0  0  0  0  0  0  0  0  0  0
   -2.8579   -2.4750    0.0000 C   0  0  0  0  0  0  0  0  0  0  0  0
   -3.5724   -2.0625    0.0000 N   0  0  0  0  0  0  0  0  0  0  0  0
   -4.2868   -2.4750    0.0000 C   0  0  0  0  0  0  0  0  0  0  0  0
   -5.0013   -2.0625    0.0000 C   0  0  0  0  0  0  0  0  0  0  0  0
   -5.0013   -1.2375    0.0000 C   0  0  0  0  0  0  0  0  0  0  0  0
   -4.2868   -0.8250    0.0000 C   0  0  0  0  0  0  0  0  0  0  0  0
   -3.5724   -1.2375    0.0000 C   0  0  0  0  0  0  0  0  0  0  0  0
   -2.1434   -2.0625    0.0000 C   0  0  0  0  0  0  0  0  0  0  0  0
   -2.1434   -1.2375    0.0000 N   0  0  0  0  0  0  0  0  0  0  0  0
   -1.4289   -0.8250    0.0000 C   0  0  0  0  0  0  0  0  0  0  0  0
   -0.7145   -1.2375    0.0000 N   0  0  0  0  0  0  0  0  0  0  0  0
   -0.7145   -2.0625    0.0000 C   0  0  0  0  0  0  0  0  0  0  0  0
    0.0000   -2.4750    0.0000 N   0  0  0  0  0  0  0  0  0  0  0  0
    0.7145   -2.0625    0.0000 C   0  0  0  0  0  0  0  0  0  0  0  0
    1.4289   -2.4750    0.0000 C   0  0  0  0  0  0  0  0  0  0  0  0
    1.4289   -3.3000    0.0000 C   0  0  0  0  0  0  0  0  0  0  0  0
    0.7145   -3.7125    0.0000 C   0  0  0  0  0  0  0  0  0  0  0  0
    0.0000   -3.3000    0.0000 C   0  0  0  0  0  0  0  0  0  0  0  0
   -1.4289   -2.4750    0.0000 C   0  0  0  0  0  0  0  0  0  0  0  0
   -1.4289   -3.3000    0.0000 N   0  0  0  0  0  0  0  0  0  0  0  0
   -1.4289    0.0000    0.0000 N   0  0  0  0  0  0  0  0  0  0  0  0
   -2.1434    0.4125    0.0000 C   0  0  0  0  0  0  0  0  0  0  0  0
   -2.1434    1.2375    0.0000 C   0  0  0  0  0  0  0  0  0  0  0  0
   -2.8579    1.6500    0.0000 O   0  0  0  0  0  0  0  0  0  0  0  0
   -0.7145    0.4125    0.0000 C   0  0  0  0  0  0  0  0  0  0  0  0
   -0.7145    1.2375    0.0000 C   0  0  0  0  0  0  0  0  0  0  0  0
    0.0000    1.6500    0.0000 O   0  0  0  0  0  0  0  0  0  0  0  0
  1  2  1  0  0  0  0
  2  3  1  0  0  0  0
  3  4  1  0  0  0  0
  4  5  1  0  0  0  0
  5  6  1  0  0  0  0
  6  7  1  0  0  0  0
  4  8  1  0  0  0  0
  8  9  4  0  0  0  0
  9 10  4  0  0  0  0
 10 11  1  0  0  0  0
 11 12  1  0  0  0  0
 12 13  1  0  0  0  0
 13 14  1  0  0  0  0
 14 15  1  0  0  0  0
 15 16  1  0  0  0  0
 11 16  1  0  0  0  0
 10 17  4  0  0  0  0
 17 18  4  0  0  0  0
 18 19  4  0  0  0  0
 19 20  4  0  0  0  0
 20 21  4  0  0  0  0
 21 22  1  0  0  0  0
 22 23  1  0  0  0  0
 23 24  1  0  0  0  0
 24 25  1  0  0  0  0
 25 26  1  0  0  0  0
 26 27  1  0  0  0  0
 22 27  1  0  0  0  0
 21 28  4  0  0  0  0
 17 28  4  0  0  0  0
 28 29  4  0  0  0  0
  8 29  4  0  0  0  0
 19 30  1  0  0  0  0
 30 31  1  0  0  0  0
 31 32  1  0  0  0  0
 32 33  1  0  0  0  0
 30 34  1  0  0  0  0
 34 35  1  0  0  0  0
 35 36  1  0  0  0  0
M  END

> <ChembankId>
1301

> <SMILES>
OCCN(CCO)c1nc(N2CCCCC2)c3nc(nc(N4CCCCC4)c3n1)N(CCO)CCO

> <InChI>
1/C24H40N8O4/c33-15-11-31(12-16-34)23-26-20-19(21(27-23)29-7-3-1-4-8-29)25-24(32(13-17-35)14-18-36)28-22(20)30-9-5-2-6-10-30/h33-36H,1-18H2

$$$$
1302
  Marvin  11101114192D          

 43 49  0  0  1  0            999 V2000
   -5.5115   -4.7605    0.0000 C   0  0  0  0  0  0  0  0  0  0  0  0
   -4.8991   -5.3133    0.0000 C   0  0  0  0  0  0  0  0  0  0  0  0
   -5.0716   -6.1201    0.0000 C   0  0  0  0  0  0  0  0  0  0  0  0
   -4.1142   -5.0593    0.0000 C   0  0  0  0  0  0  0  0  0  0  0  0
   -3.5017   -5.6121    0.0000 C   0  0  0  0  0  0  0  0  0  0  0  0
   -2.7168   -5.3581    0.0000 N   0  0  0  0  0  0  0  0  0  0  0  0
   -2.3804   -4.6048    0.0000 C   0  0  0  0  0  0  0  0  0  0  0  0
   -2.7920   -3.8898    0.0000 O   0  0  0  0  0  0  0  0  0  0  0  0
   -1.5600   -4.6920    0.0000 C   0  0  2  0  0  0  0  0  0  0  0  0
   -1.5590   -3.8670    0.0000 N   0  0  0  0  0  0  0  0  0  0  0  0
   -0.8440   -3.4554    0.0000 C   0  0  0  0  0  0  0  0  0  0  0  0
   -0.1301   -3.8687    0.0000 O   0  0  0  0  0  0  0  0  0  0  0  0
   -0.8430   -2.6304    0.0000 C   0  0  0  0  0  0  0  0  0  0  0  0
   -1.5570   -2.2170    0.0000 C   0  0  0  0  0  0  0  0  0  0  0  0
   -1.5560   -1.3920    0.0000 N   0  0  0  0  0  0  0  0  0  0  0  0
   -2.2700   -0.9786    0.0000 C   0  0  0  0  0  0  0  0  0  0  0  0
   -0.8411   -0.9804    0.0000 C   0  0  2  0  0  0  0  0  0  0  0  0
   -0.8411   -0.1554    0.0000 C   0  0  0  0  0  0  0  0  0  0  0  0
   -0.1286    0.2571    0.0000 C   0  0  0  0  0  0  0  0  0  0  0  0
    0.1714    1.1143    0.0000 C   0  0  0  0  0  0  0  0  0  0  0  0
   -0.3059    1.7871    0.0000 Br  0  0  0  0  0  0  0  0  0  0  0  0
    0.9964    1.1143    0.0000 N   0  0  0  0  0  0  0  0  0  0  0  0
    1.3018    0.2571    0.0000 C   0  0  0  0  0  0  0  0  0  0  0  0
    2.0143   -0.1554    0.0000 C   0  0  0  0  0  0  0  0  0  0  0  0
    2.0143   -0.9804    0.0000 C   0  0  0  0  0  0  0  0  0  0  0  0
    1.3018   -1.3929    0.0000 C   0  0  0  0  0  0  0  0  0  0  0  0
    0.5839   -0.9804    0.0000 C   0  0  0  0  0  0  0  0  0  0  0  0
   -0.1271   -1.3937    0.0000 C   0  0  0  0  0  0  0  0  0  0  0  0
   -0.1281   -2.2187    0.0000 C   0  0  0  0  0  0  0  0  0  0  0  0
    0.5839   -0.1554    0.0000 C   0  0  0  0  0  0  0  0  0  0  0  0
   -1.3894   -5.4992    0.0000 O   0  0  0  0  0  0  0  0  0  0  0  0
   -2.1044   -5.9108    0.0000 C   0  0  0  0  0  0  0  0  0  0  0  0
   -1.4375   -6.3965    0.0000 O   0  0  0  0  0  0  0  0  0  0  0  0
   -2.2769   -6.7176    0.0000 C   0  0  2  0  0  0  0  0  0  0  0  0
   -1.7928   -7.3856    0.0000 C   0  0  0  0  0  0  0  0  0  0  0  0
   -2.2785   -8.0525    0.0000 C   0  0  0  0  0  0  0  0  0  0  0  0
   -3.0628   -7.7966    0.0000 C   0  0  0  0  0  0  0  0  0  0  0  0
   -3.0618   -6.9716    0.0000 N   0  0  0  0  0  0  0  0  0  0  0  0
   -3.6742   -6.4188    0.0000 C   0  0  0  0  0  0  0  0  0  0  0  0
   -4.4592   -6.6728    0.0000 O   0  0  0  0  0  0  0  0  0  0  0  0
   -0.7394   -4.6067    0.0000 C   0  0  0  0  0  0  0  0  0  0  0  0
   -0.2553   -5.2748    0.0000 C   0  0  0  0  0  0  0  0  0  0  0  0
   -0.0244   -4.1951    0.0000 C   0  0  0  0  0  0  0  0  0  0  0  0
  1  2  1  0  0  0  0
  2  3  1  0  0  0  0
  2  4  1  0  0  0  0
  4  5  1  0  0  0  0
  5  6  1  0  0  0  0
  6  7  1  0  0  0  0
  7  8  2  0  0  0  0
  7  9  1  0  0  0  0
  9 10  1  6  0  0  0
 10 11  1  0  0  0  0
 11 12  2  0  0  0  0
 11 13  1  0  0  0  0
 13 14  1  0  0  0  0
 14 15  1  0  0  0  0
 15 16  1  0  0  0  0
 17 15  1  6  0  0  0
 17 18  1  0  0  0  0
 18 19  1  0  0  0  0
 19 20  4  0  0  0  0
 20 21  1  0  0  0  0
 20 22  4  0  0  0  0
 22 23  4  0  0  0  0
 23 24  4  0  0  0  0
 24 25  4  0  0  0  0
 25 26  4  0  0  0  0
 26 27  4  0  0  0  0
 27 28  1  0  0  0  0
 17 28  1  0  0  0  0
 28 29  2  0  0  0  0
 13 29  1  0  0  0  0
 27 30  4  0  0  0  0
 19 30  4  0  0  0  0
 23 30  4  0  0  0  0
  9 31  1  0  0  0  0
 31 32  1  0  0  0  0
  6 32  1  0  0  0  0
 32 33  1  0  0  0  0
 32 34  1  0  0  0  0
 34 35  1  0  0  0  0
 35 36  1  0  0  0  0
 36 37  1  0  0  0  0
 37 38  1  0  0  0  0
 34 38  1  6  0  0  0
 38 39  1  0  0  0  0
  5 39  1  0  0  0  0
 39 40  2  0  0  0  0
  9 41  1  1  0  0  0
 41 42  1  0  0  0  0
 41 43  1  0  0  0  0
M  STY  1   1 DAT
M  SAL   1  1  22
M  SDT   1 MRV_IMPLICIT_H                                        
M  SDD   1     0.0000    0.0000    DR    ALL  0       0  
M  SED   1 IMPL_H1
M  END

> <ChembankId>
1302

> <SMILES>
CC(C)CC1N2C(=O)[C@](NC(=O)C3CN(C)[C@@H]4Cc5c(Br)[nH]c6cccc(C4=C3)c56)(OC2(O)[C@@H]7CCCN7C1=O)C(C)C

> <InChI>
1/C32H40BrN5O5/c1-16(2)12-24-29(40)37-11-7-10-25(37)32(42)38(24)30(41)31(43-32,17(3)4)35-28(39)18-13-20-19-8-6-9-22-26(19)21(27(33)34-22)14-23(20)36(5)15-18/h6,8-9,13,16-18,23-25,34,42H,7,10-12,14-15H2,1-5H3,(H,35,39)

$$$$
1303
  Marvin  11101114192D          

 26 29  0  0  0  0            999 V2000
    1.0532   -2.5835    0.0000 C   0  0  0  0  0  0  0  0  0  0  0  0
    1.0655   -1.7586    0.0000 N   0  3  0  0  0  0  0  0  0  0  0  0
    1.8140   -2.1055    0.0000 C   0  0  0  0  0  0  0  0  0  0  0  0
    1.6614   -1.3425    0.0000 C   0  0  0  0  0  0  0  0  0  0  0  0
    0.9228   -1.0102    0.0000 C   0  0  0  0  0  0  0  0  0  0  0  0
    0.9605   -0.1141    0.0000 C   0  0  0  0  0  0  0  0  0  0  0  0
    1.2052   -0.7200    0.0000 C   0  0  0  0  0  0  0  0  0  0  0  0
    0.2262   -2.1175    0.0000 C   0  0  0  0  0  0  0  0  0  0  0  0
    0.1190   -1.3621    0.0000 C   0  0  0  0  0  0  0  0  0  0  0  0
   -0.6016   -0.9604    0.0000 O   0  0  0  0  0  0  0  0  0  0  0  0
   -1.3098   -1.3836    0.0000 C   0  0  0  0  0  0  0  0  0  0  0  0
   -1.2974   -2.2085    0.0000 O   0  0  0  0  0  0  0  0  0  0  0  0
   -2.0304   -0.9818    0.0000 C   0  0  0  0  0  0  0  0  0  0  0  0
   -1.6286   -0.2612    0.0000 O   0  0  0  0  0  0  0  0  0  0  0  0
   -2.7509   -0.5801    0.0000 C   0  0  0  0  0  0  0  0  0  0  0  0
   -3.4591   -1.0033    0.0000 C   0  0  0  0  0  0  0  0  0  0  0  0
   -4.1797   -0.6016    0.0000 C   0  0  0  0  0  0  0  0  0  0  0  0
   -4.1921    0.2233    0.0000 C   0  0  0  0  0  0  0  0  0  0  0  0
   -3.4839    0.6465    0.0000 C   0  0  0  0  0  0  0  0  0  0  0  0
   -2.7633    0.2448    0.0000 C   0  0  0  0  0  0  0  0  0  0  0  0
   -2.4321   -1.7024    0.0000 C   0  0  0  0  0  0  0  0  0  0  0  0
   -2.0089   -2.4106    0.0000 C   0  0  0  0  0  0  0  0  0  0  0  0
   -2.4106   -3.1312    0.0000 C   0  0  0  0  0  0  0  0  0  0  0  0
   -3.2355   -3.1436    0.0000 C   0  0  0  0  0  0  0  0  0  0  0  0
   -3.6587   -2.4354    0.0000 C   0  0  0  0  0  0  0  0  0  0  0  0
   -3.2570   -1.7148    0.0000 C   0  0  0  0  0  0  0  0  0  0  0  0
  1  2  1  0  0  0  0
  2  3  1  0  0  0  0
  3  4  1  0  0  0  0
  4  5  1  0  0  0  0
  5  6  1  0  0  0  0
  6  7  1  0  0  0  0
  2  7  1  0  0  0  0
  2  8  1  0  0  0  0
  8  9  1  0  0  0  0
  5  9  1  0  0  0  0
  9 10  1  0  0  0  0
 10 11  1  0  0  0  0
 11 12  2  0  0  0  0
 11 13  1  0  0  0  0
 13 14  1  0  0  0  0
 13 15  1  0  0  0  0
 15 16  4  0  0  0  0
 16 17  4  0  0  0  0
 17 18  4  0  0  0  0
 18 19  4  0  0  0  0
 19 20  4  0  0  0  0
 15 20  4  0  0  0  0
 13 21  1  0  0  0  0
 21 22  4  0  0  0  0
 22 23  4  0  0  0  0
 23 24  4  0  0  0  0
 24 25  4  0  0  0  0
 25 26  4  0  0  0  0
 21 26  4  0  0  0  0
M  CHG  1   2   1
M  END

> <ChembankId>
1303

> <SMILES>
C[N+]1(CCC2CC1)CC2OC(=O)C(O)(c3ccccc3)c4ccccc4

> <InChI>
1/C22H26NO3/c1-23-14-12-17(13-15-23)20(16-23)26-21(24)22(25,18-8-4-2-5-9-18)19-10-6-3-7-11-19/h2-11,17,20,25H,12-16H2,1H3/q+1

$$$$
1308
  Marvin  11101114192D          

 18 19  0  0  0  0            999 V2000
    6.2102    1.9354    0.0000 C   0  0  0  0  0  0  0  0  0  0  0  0
    5.4957    2.3479    0.0000 C   0  0  0  0  0  0  0  0  0  0  0  0
    4.7812    1.9354    0.0000 C   0  0  0  0  0  0  0  0  0  0  0  0
    4.0668    2.3479    0.0000 S   0  0  0  0  0  0  0  0  0  0  0  0
    3.3523    1.9354    0.0000 C   0  0  0  0  0  0  0  0  0  0  0  0
    3.3523    1.1104    0.0000 C   0  0  0  0  0  0  0  0  0  0  0  0
    2.6378    0.6979    0.0000 C   0  0  0  0  0  0  0  0  0  0  0  0
    1.9233    1.1104    0.0000 C   0  0  0  0  0  0  0  0  0  0  0  0
    1.1387    0.8555    0.0000 N   0  0  0  0  0  0  0  0  0  0  0  0
    0.6538    1.5229    0.0000 C   0  0  0  0  0  0  0  0  0  0  0  0
   -0.1712    1.5229    0.0000 N   0  0  0  0  0  0  0  0  0  0  0  0
   -0.5837    0.8085    0.0000 C   0  0  0  0  0  0  0  0  0  0  0  0
   -0.1712    0.0940    0.0000 O   0  0  0  0  0  0  0  0  0  0  0  0
   -1.4087    0.8085    0.0000 O   0  0  0  0  0  0  0  0  0  0  0  0
   -1.8212    0.0940    0.0000 C   0  0  0  0  0  0  0  0  0  0  0  0
    1.1387    2.1904    0.0000 N   0  0  0  0  0  0  0  0  0  0  0  0
    1.9233    1.9354    0.0000 C   0  0  0  0  0  0  0  0  0  0  0  0
    2.6378    2.3479    0.0000 C   0  0  0  0  0  0  0  0  0  0  0  0
  1  2  1  0  0  0  0
  2  3  1  0  0  0  0
  3  4  1  0  0  0  0
  4  5  1  0  0  0  0
  5  6  4  0  0  0  0
  6  7  4  0  0  0  0
  7  8  4  0  0  0  0
  8  9  4  0  0  0  0
  9 10  4  0  0  0  0
 10 11  1  0  0  0  0
 11 12  1  0  0  0  0
 12 13  2  0  0  0  0
 12 14  1  0  0  0  0
 14 15  1  0  0  0  0
 10 16  4  0  0  0  0
 16 17  4  0  0  0  0
  8 17  4  0  0  0  0
 17 18  4  0  0  0  0
  5 18  4  0  0  0  0
M  STY  1   1 DAT
M  SAL   1  1  16
M  SDT   1 MRV_IMPLICIT_H                                        
M  SDD   1     0.0000    0.0000    DR    ALL  0       0  
M  SED   1 IMPL_H1
M  END

> <ChembankId>
1308

> <SMILES>
CCCSc1ccc2nc(NC(=O)OC)[nH]c2c1

> <InChI>
1/C12H15N3O2S/c1-3-6-18-8-4-5-9-10(7-8)14-11(13-9)15-12(16)17-2/h4-5,7H,3,6H2,1-2H3,(H2,13,14,15,16)

$$$$
1313
  Marvin  11101114192D          

 21 22  0  0  0  0            999 V2000
    1.4289   -1.6500    0.0000 O   0  0  0  0  0  0  0  0  0  0  0  0
    1.4289   -2.4750    0.0000 C   0  0  0  0  0  0  0  0  0  0  0  0
    2.1434   -2.8875    0.0000 C   0  0  0  0  0  0  0  0  0  0  0  0
    2.1434   -3.7125    0.0000 C   0  0  0  0  0  0  0  0  0  0  0  0
    1.4289   -4.1250    0.0000 C   0  0  0  0  0  0  0  0  0  0  0  0
    1.4289   -4.9500    0.0000 Cl  0  0  0  0  0  0  0  0  0  0  0  0
    0.7145   -3.7125    0.0000 C   0  0  0  0  0  0  0  0  0  0  0  0
    0.7145   -2.8875    0.0000 C   0  0  0  0  0  0  0  0  0  0  0  0
    0.0000   -2.4750    0.0000 C   0  0  0  0  0  0  0  0  0  0  0  0
    0.0000   -1.6500    0.0000 O   0  0  0  0  0  0  0  0  0  0  0  0
   -0.7145   -2.8875    0.0000 N   0  0  0  0  0  0  0  0  0  0  0  0
   -1.4289   -2.4750    0.0000 C   0  0  0  0  0  0  0  0  0  0  0  0
   -2.1434   -2.8875    0.0000 C   0  0  0  0  0  0  0  0  0  0  0  0
   -2.8579   -2.4750    0.0000 C   0  0  0  0  0  0  0  0  0  0  0  0
   -2.8579   -1.6500    0.0000 C   0  0  0  0  0  0  0  0  0  0  0  0
   -2.1434   -1.2375    0.0000 C   0  0  0  0  0  0  0  0  0  0  0  0
   -1.4289   -1.6500    0.0000 C   0  0  0  0  0  0  0  0  0  0  0  0
   -0.7145   -1.2375    0.0000 Cl  0  0  0  0  0  0  0  0  0  0  0  0
   -3.5724   -1.2375    0.0000 N   0  3  0  0  0  0  0  0  0  0  0  0
   -4.2868   -1.6500    0.0000 O   0  0  0  0  0  0  0  0  0  0  0  0
   -3.5724   -0.4125    0.0000 O   0  5  0  0  0  0  0  0  0  0  0  0
  1  2  1  0  0  0  0
  2  3  4  0  0  0  0
  3  4  4  0  0  0  0
  4  5  4  0  0  0  0
  5  6  1  0  0  0  0
  5  7  4  0  0  0  0
  7  8  4  0  0  0  0
  2  8  4  0  0  0  0
  8  9  1  0  0  0  0
  9 10  2  0  0  0  0
  9 11  1  0  0  0  0
 11 12  1  0  0  0  0
 12 13  4  0  0  0  0
 13 14  4  0  0  0  0
 14 15  4  0  0  0  0
 15 16  4  0  0  0  0
 16 17  4  0  0  0  0
 12 17  4  0  0  0  0
 17 18  1  0  0  0  0
 15 19  1  0  0  0  0
 19 20  2  0  0  0  0
 19 21  1  0  0  0  0
M  CHG  2  19   1  21  -1
M  END

> <ChembankId>
1313

> <SMILES>
Oc1ccc(Cl)cc1C(=O)Nc2ccc(cc2Cl)[N+](=O)[O-]

> <InChI>
1/C13H8Cl2N2O4/c14-7-1-4-12(18)9(5-7)13(19)16-11-3-2-8(17(20)21)6-10(11)15/h1-6,18H,(H,16,19)

$$$$
1315
  Marvin  11101114192D          

 43 47  0  0  1  0            999 V2000
   -2.1434   -3.7125    0.0000 C   0  0  0  0  0  0  0  0  0  0  0  0
   -2.1434   -2.8875    0.0000 O   0  0  0  0  0  0  0  0  0  0  0  0
   -1.4289   -2.4750    0.0000 C   0  0  0  0  0  0  0  0  0  0  0  0
   -1.4289   -1.6500    0.0000 C   0  0  0  0  0  0  0  0  0  0  0  0
   -0.7145   -1.2375    0.0000 C   0  0  0  0  0  0  0  0  0  0  0  0
    0.0000   -1.6500    0.0000 C   0  0  0  0  0  0  0  0  0  0  0  0
    0.0000   -2.4750    0.0000 C   0  0  0  0  0  0  0  0  0  0  0  0
   -0.7145   -2.8875    0.0000 C   0  0  0  0  0  0  0  0  0  0  0  0
   -0.7145   -3.7125    0.0000 O   0  0  0  0  0  0  0  0  0  0  0  0
    0.7145   -1.2375    0.0000 C   0  0  2  0  0  0  0  0  0  0  0  0
    0.7145   -0.4125    0.0000 C   0  0  0  0  0  0  0  0  0  0  0  0
    1.4289    0.0000    0.0000 C   0  0  0  0  0  0  0  0  0  0  0  0
    1.4289    0.8250    0.0000 O   0  0  0  0  0  0  0  0  0  0  0  0
    2.1434   -0.4125    0.0000 C   0  0  0  0  0  0  0  0  0  0  0  0
    2.8579    0.0000    0.0000 C   0  0  0  0  0  0  0  0  0  0  0  0
    2.8579    0.8250    0.0000 O   0  0  0  0  0  0  0  0  0  0  0  0
    3.5724   -0.4125    0.0000 C   0  0  0  0  0  0  0  0  0  0  0  0
    3.5724   -1.2375    0.0000 C   0  0  0  0  0  0  0  0  0  0  0  0
    4.2868   -1.6500    0.0000 O   0  0  0  0  0  0  0  0  0  0  0  0
    4.2868   -2.4750    0.0000 C   0  0  2  0  0  0  0  0  0  0  0  0
    5.0013   -2.8875    0.0000 O   0  0  0  0  0  0  0  0  0  0  0  0
    5.0013   -3.7125    0.0000 C   0  0  2  0  0  0  0  0  0  0  0  0
    5.7158   -4.1250    0.0000 C   0  0  0  0  0  0  0  0  0  0  0  0
    6.4302   -3.7125    0.0000 O   0  0  0  0  0  0  0  0  0  0  0  0
    7.1447   -4.1250    0.0000 C   0  0  1  0  0  0  0  0  0  0  0  0
    7.8592   -3.7125    0.0000 O   0  0  0  0  0  0  0  0  0  0  0  0
    8.5737   -4.1250    0.0000 C   0  0  1  0  0  0  0  0  0  0  0  0
    9.2881   -3.7125    0.0000 C   0  0  0  0  0  0  0  0  0  0  0  0
    8.5737   -4.9500    0.0000 C   0  0  2  0  0  0  0  0  0  0  0  0
    9.2881   -5.3625    0.0000 O   0  0  0  0  0  0  0  0  0  0  0  0
    7.8592   -5.3625    0.0000 C   0  0  1  0  0  0  0  0  0  0  0  0
    7.8592   -6.1875    0.0000 O   0  0  0  0  0  0  0  0  0  0  0  0
    7.1447   -4.9500    0.0000 C   0  0  1  0  0  0  0  0  0  0  0  0
    6.4302   -5.3625    0.0000 O   0  0  0  0  0  0  0  0  0  0  0  0
    4.2868   -4.1250    0.0000 C   0  0  1  0  0  0  0  0  0  0  0  0
    4.2868   -4.9500    0.0000 O   0  0  0  0  0  0  0  0  0  0  0  0
    3.5724   -3.7125    0.0000 C   0  0  2  0  0  0  0  0  0  0  0  0
    2.8579   -4.1250    0.0000 O   0  0  0  0  0  0  0  0  0  0  0  0
    3.5724   -2.8875    0.0000 C   0  0  1  0  0  0  0  0  0  0  0  0
    2.8579   -2.4750    0.0000 O   0  0  0  0  0  0  0  0  0  0  0  0
    2.8579   -1.6500    0.0000 C   0  0  0  0  0  0  0  0  0  0  0  0
    2.1434   -1.2375    0.0000 C   0  0  0  0  0  0  0  0  0  0  0  0
    1.4289   -1.6500    0.0000 O   0  0  0  0  0  0  0  0  0  0  0  0
  1  2  1  0  0  0  0
  2  3  1  0  0  0  0
  3  4  4  0  0  0  0
  4  5  4  0  0  0  0
  5  6  4  0  0  0  0
  6  7  4  0  0  0  0
  7  8  4  0  0  0  0
  3  8  4  0  0  0  0
  8  9  1  0  0  0  0
 10  6  1  6  0  0  0
 10 11  1  0  0  0  0
 11 12  1  0  0  0  0
 12 13  2  0  0  0  0
 12 14  1  0  0  0  0
 14 15  4  0  0  0  0
 15 16  1  0  0  0  0
 15 17  4  0  0  0  0
 17 18  4  0  0  0  0
 18 19  1  0  0  0  0
 20 19  1  6  0  0  0
 20 21  1  0  0  0  0
 21 22  1  0  0  0  0
 22 23  1  6  0  0  0
 23 24  1  0  0  0  0
 25 24  1  1  0  0  0
 25 26  1  0  0  0  0
 26 27  1  0  0  0  0
 27 28  1  1  0  0  0
 27 29  1  0  0  0  0
 29 30  1  6  0  0  0
 29 31  1  0  0  0  0
 31 32  1  1  0  0  0
 31 33  1  0  0  0  0
 25 33  1  0  0  0  0
 33 34  1  1  0  0  0
 22 35  1  0  0  0  0
 35 36  1  1  0  0  0
 35 37  1  0  0  0  0
 37 38  1  6  0  0  0
 37 39  1  0  0  0  0
 20 39  1  0  0  0  0
 39 40  1  1  0  0  0
 18 41  4  0  0  0  0
 41 42  4  0  0  0  0
 14 42  4  0  0  0  0
 42 43  1  0  0  0  0
 10 43  1  0  0  0  0
M  END

> <ChembankId>
1315

> <SMILES>
COc1ccc(cc1O)[C@@H]2CC(=O)c3c(O)cc(O[C@@H]4O[C@H](CO[C@H]5O[C@@H](C)[C@H](O)[C@@H](O)[C@H]5O)[C@@H](O)[C@H](O)[C@H]4O)cc3O2

> <InChI>
1/C28H34O15/c1-10-21(32)23(34)25(36)27(40-10)39-9-19-22(33)24(35)26(37)28(43-19)41-12-6-14(30)20-15(31)8-17(42-18(20)7-12)11-3-4-16(38-2)13(29)5-11/h3-7,10,17,19,21-30,32-37H,8-9H2,1-2H3

$$$$
1318
  Marvin  11101114192D          

 34 35  0  0  0  0            999 V2000
   10.0026   -9.0750    0.0000 C   0  0  0  0  0  0  0  0  0  0  0  0
   10.0026   -8.2500    0.0000 N   0  0  0  0  0  0  0  0  0  0  0  0
    9.2881   -7.8375    0.0000 C   0  0  0  0  0  0  0  0  0  0  0  0
    9.2881   -7.0125    0.0000 O   0  0  0  0  0  0  0  0  0  0  0  0
    8.5737   -8.2500    0.0000 C   0  0  0  0  0  0  0  0  0  0  0  0
    7.8592   -7.8375    0.0000 N   0  0  0  0  0  0  0  0  0  0  0  0
    7.8592   -7.0125    0.0000 C   0  0  0  0  0  0  0  0  0  0  0  0
    7.1447   -6.6000    0.0000 C   0  0  0  0  0  0  0  0  0  0  0  0
    7.1447   -5.7750    0.0000 O   0  0  0  0  0  0  0  0  0  0  0  0
    7.1447   -8.2500    0.0000 C   0  0  0  0  0  0  0  0  0  0  0  0
    6.4302   -7.8375    0.0000 C   0  0  0  0  0  0  0  0  0  0  0  0
    6.4302   -7.0125    0.0000 O   0  0  0  0  0  0  0  0  0  0  0  0
    5.7158   -8.2500    0.0000 N   0  0  0  0  0  0  0  0  0  0  0  0
    5.7158   -9.0750    0.0000 C   0  0  0  0  0  0  0  0  0  0  0  0
    5.0013   -7.8375    0.0000 C   0  0  0  0  0  0  0  0  0  0  0  0
    4.5888   -8.5520    0.0000 C   0  0  0  0  0  0  0  0  0  0  0  0
    5.4138   -7.1230    0.0000 C   0  0  0  0  0  0  0  0  0  0  0  0
    4.2868   -7.4250    0.0000 C   0  0  0  0  0  0  0  0  0  0  0  0
    3.5724   -7.8375    0.0000 C   0  0  0  0  0  0  0  0  0  0  0  0
    3.5724   -8.6625    0.0000 C   0  0  0  0  0  0  0  0  0  0  0  0
    2.8579   -9.0750    0.0000 C   0  0  0  0  0  0  0  0  0  0  0  0
    2.1434   -8.6625    0.0000 C   0  0  0  0  0  0  0  0  0  0  0  0
    2.1434   -7.8375    0.0000 C   0  0  0  0  0  0  0  0  0  0  0  0
    2.8579   -7.4250    0.0000 C   0  0  0  0  0  0  0  0  0  0  0  0
   10.7171   -7.8375    0.0000 C   0  0  0  0  0  0  0  0  0  0  0  0
   11.1296   -8.5520    0.0000 C   0  0  0  0  0  0  0  0  0  0  0  0
   10.3046   -7.1230    0.0000 C   0  0  0  0  0  0  0  0  0  0  0  0
   11.4315   -7.4250    0.0000 C   0  0  0  0  0  0  0  0  0  0  0  0
   12.1460   -7.8375    0.0000 C   0  0  0  0  0  0  0  0  0  0  0  0
   12.8605   -7.4250    0.0000 C   0  0  0  0  0  0  0  0  0  0  0  0
   13.5749   -7.8375    0.0000 C   0  0  0  0  0  0  0  0  0  0  0  0
   13.5749   -8.6625    0.0000 C   0  0  0  0  0  0  0  0  0  0  0  0
   12.8605   -9.0750    0.0000 C   0  0  0  0  0  0  0  0  0  0  0  0
   12.1460   -8.6625    0.0000 C   0  0  0  0  0  0  0  0  0  0  0  0
  1  2  1  0  0  0  0
  2  3  1  0  0  0  0
  3  4  2  0  0  0  0
  3  5  1  0  0  0  0
  5  6  1  0  0  0  0
  6  7  1  0  0  0  0
  7  8  1  0  0  0  0
  8  9  1  0  0  0  0
  6 10  1  0  0  0  0
 10 11  1  0  0  0  0
 11 12  2  0  0  0  0
 11 13  1  0  0  0  0
 13 14  1  0  0  0  0
 13 15  1  0  0  0  0
 15 16  1  0  0  0  0
 15 17  1  0  0  0  0
 15 18  1  0  0  0  0
 18 19  1  0  0  0  0
 19 20  4  0  0  0  0
 20 21  4  0  0  0  0
 21 22  4  0  0  0  0
 22 23  4  0  0  0  0
 23 24  4  0  0  0  0
 19 24  4  0  0  0  0
  2 25  1  0  0  0  0
 25 26  1  0  0  0  0
 25 27  1  0  0  0  0
 25 28  1  0  0  0  0
 28 29  1  0  0  0  0
 29 30  4  0  0  0  0
 30 31  4  0  0  0  0
 31 32  4  0  0  0  0
 32 33  4  0  0  0  0
 33 34  4  0  0  0  0
 29 34  4  0  0  0  0
M  END

> <ChembankId>
1318

> <SMILES>
CN(C(=O)CN(CCO)CC(=O)N(C)C(C)(C)Cc1ccccc1)C(C)(C)Cc2ccccc2

> <InChI>
1/C28H41N3O3/c1-27(2,19-23-13-9-7-10-14-23)29(5)25(33)21-31(17-18-32)22-26(34)30(6)28(3,4)20-24-15-11-8-12-16-24/h7-16,32H,17-22H2,1-6H3

$$$$
1323
  Marvin  11101114192D          

 26 29  0  0  0  0            999 V2000
    3.5724   -2.8875    0.0000 C   0  0  0  0  0  0  0  0  0  0  0  0
    2.8579   -2.4750    0.0000 C   0  0  0  0  0  0  0  0  0  0  0  0
    2.1434   -2.8875    0.0000 C   0  0  0  0  0  0  0  0  0  0  0  0
    1.4289   -2.4750    0.0000 O   0  0  0  0  0  0  0  0  0  0  0  0
    1.4289   -1.6500    0.0000 C   0  0  0  0  0  0  0  0  0  0  0  0
    0.7145   -1.2375    0.0000 C   0  0  0  0  0  0  0  0  0  0  0  0
    0.0000   -1.6500    0.0000 N   0  0  0  0  0  0  0  0  0  0  0  0
    0.0000   -2.4750    0.0000 C   0  0  0  0  0  0  0  0  0  0  0  0
   -0.7145   -2.8875    0.0000 C   0  0  0  0  0  0  0  0  0  0  0  0
   -1.4289   -2.4750    0.0000 N   0  0  0  0  0  0  0  0  0  0  0  0
   -2.1434   -2.8875    0.0000 C   0  0  0  0  0  0  0  0  0  0  0  0
   -1.4289   -1.6500    0.0000 C   0  0  0  0  0  0  0  0  0  0  0  0
   -0.7145   -1.2375    0.0000 C   0  0  0  0  0  0  0  0  0  0  0  0
    0.7145   -0.4125    0.0000 C   0  0  0  0  0  0  0  0  0  0  0  0
    0.0000    0.0000    0.0000 F   0  0  0  0  0  0  0  0  0  0  0  0
    1.4289   -0.0000    0.0000 C   0  0  0  0  0  0  0  0  0  0  0  0
    2.1434   -0.4125    0.0000 C   0  0  0  0  0  0  0  0  0  0  0  0
    2.8579    0.0000    0.0000 C   0  0  0  0  0  0  0  0  0  0  0  0
    2.8579    0.8250    0.0000 O   0  0  0  0  0  0  0  0  0  0  0  0
    3.5724   -0.4125    0.0000 C   0  0  0  0  0  0  0  0  0  0  0  0
    3.5724   -1.2375    0.0000 C   0  0  0  0  0  0  0  0  0  0  0  0
    2.8579   -1.6500    0.0000 N   0  0  0  0  0  0  0  0  0  0  0  0
    2.1434   -1.2375    0.0000 C   0  0  0  0  0  0  0  0  0  0  0  0
    4.2868   -0.0000    0.0000 C   0  0  0  0  0  0  0  0  0  0  0  0
    4.2868    0.8250    0.0000 O   0  0  0  0  0  0  0  0  0  0  0  0
    5.0013   -0.4125    0.0000 O   0  0  0  0  0  0  0  0  0  0  0  0
  1  2  1  0  0  0  0
  2  3  1  0  0  0  0
  3  4  1  0  0  0  0
  4  5  1  0  0  0  0
  5  6  4  0  0  0  0
  6  7  1  0  0  0  0
  7  8  1  0  0  0  0
  8  9  1  0  0  0  0
  9 10  1  0  0  0  0
 10 11  1  0  0  0  0
 10 12  1  0  0  0  0
 12 13  1  0  0  0  0
  7 13  1  0  0  0  0
  6 14  4  0  0  0  0
 14 15  1  0  0  0  0
 14 16  4  0  0  0  0
 16 17  4  0  0  0  0
 17 18  4  0  0  0  0
 18 19  2  0  0  0  0
 18 20  4  0  0  0  0
 20 21  4  0  0  0  0
 21 22  4  0  0  0  0
  2 22  1  0  0  0  0
 22 23  4  0  0  0  0
  5 23  4  0  0  0  0
 17 23  4  0  0  0  0
 20 24  1  0  0  0  0
 24 25  2  0  0  0  0
 24 26  1  0  0  0  0
M  END

> <ChembankId>
1323

> <SMILES>
CC1COc2c(N3CCN(C)CC3)c(F)cc4c(=O)c(cn1c24)C(=O)O

> <InChI>
1/C18H20FN3O4/c1-10-9-26-17-14-11(16(23)12(18(24)25)8-22(10)14)7-13(19)15(17)21-5-3-20(2)4-6-21/h7-8,10H,3-6,9H2,1-2H3,(H,24,25)

$$$$
1327
  Marvin  11101114192D          

 10  9  0  0  0  0            999 V2000
    1.7605    1.0164    0.0000 C   0  0  0  0  0  0  0  0  0  0  0  0
    2.4750    1.4289    0.0000 N   0  3  0  0  0  0  0  0  0  0  0  0
    2.8875    0.7145    0.0000 C   0  0  0  0  0  0  0  0  0  0  0  0
    2.0625    2.1434    0.0000 C   0  0  0  0  0  0  0  0  0  0  0  0
    3.1895    1.8414    0.0000 C   0  0  0  0  0  0  0  0  0  0  0  0
    3.9039    1.4289    0.0000 C   0  0  0  0  0  0  0  0  0  0  0  0
    4.6184    1.8414    0.0000 O   0  0  0  0  0  0  0  0  0  0  0  0
    5.3329    1.4289    0.0000 C   0  0  0  0  0  0  0  0  0  0  0  0
    6.0474    1.8414    0.0000 O   0  0  0  0  0  0  0  0  0  0  0  0
    5.3329    0.6039    0.0000 N   0  0  0  0  0  0  0  0  0  0  0  0
  1  2  1  0  0  0  0
  2  3  1  0  0  0  0
  2  4  1  0  0  0  0
  2  5  1  0  0  0  0
  5  6  1  0  0  0  0
  6  7  1  0  0  0  0
  7  8  1  0  0  0  0
  8  9  2  0  0  0  0
  8 10  1  0  0  0  0
M  CHG  1   2   1
M  END

> <ChembankId>
1327

> <SMILES>
C[N+](C)(C)CCOC(=O)N

> <InChI>
1/C6H14N2O2/c1-8(2,3)4-5-10-6(7)9/h4-5H2,1-3H3,(H-,7,9)/p+1

$$$$
1328
  Marvin  11101114192D          

 22 24  0  0  0  0            999 V2000
    2.0625    2.3645    0.0000 O   0  0  0  0  0  0  0  0  0  0  0  0
    2.8875    2.3645    0.0000 C   0  0  0  0  0  0  0  0  0  0  0  0
    2.8875    1.5395    0.0000 C   0  0  0  0  0  0  0  0  0  0  0  0
    3.6020    1.1270    0.0000 C   0  0  0  0  0  0  0  0  0  0  0  0
    3.6020    0.3020    0.0000 N   0  0  0  0  0  0  0  0  0  0  0  0
    4.3164   -0.1105    0.0000 C   0  0  0  0  0  0  0  0  0  0  0  0
    4.3164   -0.9355    0.0000 C   0  0  0  0  0  0  0  0  0  0  0  0
    3.6020   -1.3480    0.0000 C   0  0  0  0  0  0  0  0  0  0  0  0
    2.8875   -0.9355    0.0000 C   0  0  0  0  0  0  0  0  0  0  0  0
    2.8875   -0.1105    0.0000 C   0  0  0  0  0  0  0  0  0  0  0  0
    2.8875    3.1895    0.0000 C   0  0  0  0  0  0  0  0  0  0  0  0
    2.1730    3.6020    0.0000 C   0  0  0  0  0  0  0  0  0  0  0  0
    2.1730    4.4270    0.0000 C   0  0  0  0  0  0  0  0  0  0  0  0
    2.8875    4.8395    0.0000 C   0  0  0  0  0  0  0  0  0  0  0  0
    3.6020    4.4270    0.0000 C   0  0  0  0  0  0  0  0  0  0  0  0
    3.6020    3.6020    0.0000 C   0  0  0  0  0  0  0  0  0  0  0  0
    3.7125    2.3645    0.0000 C   0  0  0  0  0  0  0  0  0  0  0  0
    4.1250    3.0789    0.0000 C   0  0  0  0  0  0  0  0  0  0  0  0
    4.9500    3.0789    0.0000 C   0  0  0  0  0  0  0  0  0  0  0  0
    5.3625    2.3645    0.0000 C   0  0  0  0  0  0  0  0  0  0  0  0
    4.9500    1.6500    0.0000 C   0  0  0  0  0  0  0  0  0  0  0  0
    4.1250    1.6500    0.0000 C   0  0  0  0  0  0  0  0  0  0  0  0
  1  2  1  0  0  0  0
  2  3  1  0  0  0  0
  3  4  1  0  0  0  0
  4  5  1  0  0  0  0
  5  6  1  0  0  0  0
  6  7  1  0  0  0  0
  7  8  1  0  0  0  0
  8  9  1  0  0  0  0
  9 10  1  0  0  0  0
  5 10  1  0  0  0  0
  2 11  1  0  0  0  0
 11 12  4  0  0  0  0
 12 13  4  0  0  0  0
 13 14  4  0  0  0  0
 14 15  4  0  0  0  0
 15 16  4  0  0  0  0
 11 16  4  0  0  0  0
  2 17  1  0  0  0  0
 17 18  4  0  0  0  0
 18 19  4  0  0  0  0
 19 20  4  0  0  0  0
 20 21  4  0  0  0  0
 21 22  4  0  0  0  0
 17 22  4  0  0  0  0
M  END

> <ChembankId>
1328

> <SMILES>
OC(CCN1CCCCC1)(c2ccccc2)c3ccccc3

> <InChI>
1/C20H25NO/c22-20(18-10-4-1-5-11-18,19-12-6-2-7-13-19)14-17-21-15-8-3-9-16-21/h1-2,4-7,10-13,22H,3,8-9,14-17H2

$$$$
1331
  Marvin  11101114192D          

 20 21  0  0  0  0            999 V2000
    1.4289   -4.1250    0.0000 C   0  0  0  0  0  0  0  0  0  0  0  0
    2.1434   -3.7125    0.0000 C   0  0  0  0  0  0  0  0  0  0  0  0
    2.1434   -2.8875    0.0000 O   0  0  0  0  0  0  0  0  0  0  0  0
    2.8579   -4.1250    0.0000 C   0  0  0  0  0  0  0  0  0  0  0  0
    3.5724   -3.7125    0.0000 C   0  0  0  0  0  0  0  0  0  0  0  0
    4.2868   -4.1250    0.0000 C   0  0  0  0  0  0  0  0  0  0  0  0
    5.0013   -3.7125    0.0000 C   0  0  0  0  0  0  0  0  0  0  0  0
    5.7158   -4.1250    0.0000 N   0  0  0  0  0  0  0  0  0  0  0  0
    6.4302   -3.7125    0.0000 C   0  0  0  0  0  0  0  0  0  0  0  0
    6.4302   -2.8875    0.0000 O   0  0  0  0  0  0  0  0  0  0  0  0
    7.1447   -4.1250    0.0000 N   0  0  0  0  0  0  0  0  0  0  0  0
    7.8592   -3.7125    0.0000 C   0  0  0  0  0  0  0  0  0  0  0  0
    7.1447   -4.9500    0.0000 C   0  0  0  0  0  0  0  0  0  0  0  0
    7.7578   -5.5020    0.0000 N   0  0  0  0  0  0  0  0  0  0  0  0
    7.4222   -6.2557    0.0000 C   0  0  0  0  0  0  0  0  0  0  0  0
    6.6018   -6.1695    0.0000 N   0  0  0  0  0  0  0  0  0  0  0  0
    6.0497   -6.7826    0.0000 C   0  0  0  0  0  0  0  0  0  0  0  0
    6.4302   -5.3625    0.0000 C   0  0  0  0  0  0  0  0  0  0  0  0
    5.7158   -4.9500    0.0000 C   0  0  0  0  0  0  0  0  0  0  0  0
    5.0013   -5.3625    0.0000 O   0  0  0  0  0  0  0  0  0  0  0  0
  1  2  1  0  0  0  0
  2  3  2  0  0  0  0
  2  4  1  0  0  0  0
  4  5  1  0  0  0  0
  5  6  1  0  0  0  0
  6  7  1  0  0  0  0
  7  8  1  0  0  0  0
  8  9  4  0  0  0  0
  9 10  2  0  0  0  0
  9 11  4  0  0  0  0
 11 12  1  0  0  0  0
 11 13  4  0  0  0  0
 13 14  4  0  0  0  0
 14 15  4  0  0  0  0
 15 16  4  0  0  0  0
 16 17  1  0  0  0  0
 16 18  4  0  0  0  0
 13 18  4  0  0  0  0
 18 19  4  0  0  0  0
  8 19  4  0  0  0  0
 19 20  2  0  0  0  0
M  END

> <ChembankId>
1331

> <SMILES>
CC(=O)CCCCn1c(=O)n(C)c2ncn(C)c2c1=O

> <InChI>
1/C13H18N4O3/c1-9(18)6-4-5-7-17-12(19)10-11(14-8-15(10)2)16(3)13(17)20/h8H,4-7H2,1-3H3

$$$$
1332
  Marvin  11101114192D          

 22 24  0  0  0  0            999 V2000
   -2.4336   -0.9529    0.0000 N   0  0  0  0  0  0  0  0  0  0  0  0
   -1.7192   -1.3654    0.0000 S   0  0  0  0  0  0  0  0  0  0  0  0
   -2.1317   -2.0799    0.0000 O   0  0  0  0  0  0  0  0  0  0  0  0
   -1.3067   -0.6509    0.0000 O   0  0  0  0  0  0  0  0  0  0  0  0
   -1.0047   -1.7779    0.0000 C   0  0  0  0  0  0  0  0  0  0  0  0
   -0.2902   -1.3654    0.0000 C   0  0  0  0  0  0  0  0  0  0  0  0
    0.4243   -1.7779    0.0000 C   0  0  0  0  0  0  0  0  0  0  0  0
    0.4243   -2.6029    0.0000 C   0  0  0  0  0  0  0  0  0  0  0  0
   -0.2902   -3.0154    0.0000 C   0  0  0  0  0  0  0  0  0  0  0  0
   -1.0047   -2.6029    0.0000 C   0  0  0  0  0  0  0  0  0  0  0  0
   -1.7192   -3.0154    0.0000 Cl  0  0  0  0  0  0  0  0  0  0  0  0
    1.1387   -1.3654    0.0000 C   0  0  0  0  0  0  0  0  0  0  0  0
    1.4743   -2.1191    0.0000 O   0  0  0  0  0  0  0  0  0  0  0  0
    0.6538   -0.6979    0.0000 N   0  0  0  0  0  0  0  0  0  0  0  0
    1.1387   -0.0305    0.0000 C   0  0  0  0  0  0  0  0  0  0  0  0
    0.8838    0.7541    0.0000 O   0  0  0  0  0  0  0  0  0  0  0  0
    1.9233   -0.2854    0.0000 C   0  0  0  0  0  0  0  0  0  0  0  0
    2.6378    0.1271    0.0000 C   0  0  0  0  0  0  0  0  0  0  0  0
    3.3523   -0.2854    0.0000 C   0  0  0  0  0  0  0  0  0  0  0  0
    3.3523   -1.1104    0.0000 C   0  0  0  0  0  0  0  0  0  0  0  0
    2.6378   -1.5229    0.0000 C   0  0  0  0  0  0  0  0  0  0  0  0
    1.9233   -1.1104    0.0000 C   0  0  0  0  0  0  0  0  0  0  0  0
  1  2  1  0  0  0  0
  2  3  2  0  0  0  0
  2  4  2  0  0  0  0
  2  5  1  0  0  0  0
  5  6  4  0  0  0  0
  6  7  4  0  0  0  0
  7  8  4  0  0  0  0
  8  9  4  0  0  0  0
  9 10  4  0  0  0  0
  5 10  4  0  0  0  0
 10 11  1  0  0  0  0
  7 12  1  0  0  0  0
 12 13  1  0  0  0  0
 12 14  1  0  0  0  0
 14 15  1  0  0  0  0
 15 16  2  0  0  0  0
 15 17  1  0  0  0  0
 17 18  4  0  0  0  0
 18 19  4  0  0  0  0
 19 20  4  0  0  0  0
 20 21  4  0  0  0  0
 21 22  4  0  0  0  0
 17 22  4  0  0  0  0
 12 22  1  0  0  0  0
M  END

> <ChembankId>
1332

> <SMILES>
NS(=O)(=O)c1cc(ccc1Cl)C2(O)NC(=O)c3ccccc32

> <InChI>
1/C14H11ClN2O4S/c15-11-6-5-8(7-12(11)22(16,20)21)14(19)10-4-2-1-3-9(10)13(18)17-14/h1-7,19H,(H,17,18)(H2,16,20,21)

$$$$
1337
  Marvin  11101114192D          

 29 32  0  0  1  0            999 V2000
   -1.1943    1.3483    0.0000 C   0  0  0  0  0  0  0  0  0  0  0  0
   -0.8197    2.0834    0.0000 C   0  0  0  0  0  0  0  0  0  0  0  0
   -1.1943    2.8185    0.0000 O   0  0  0  0  0  0  0  0  0  0  0  0
   -0.6109    3.4018    0.0000 N   0  0  0  0  0  0  0  0  0  0  0  0
    0.1242    3.0273    0.0000 C   0  0  0  0  0  0  0  0  0  0  0  0
   -0.0049    2.2124    0.0000 C   0  0  0  0  0  0  0  0  0  0  0  0
    0.5785    1.6291    0.0000 C   0  0  0  0  0  0  0  0  0  0  0  0
    1.3754    1.8426    0.0000 O   0  0  0  0  0  0  0  0  0  0  0  0
    0.3649    0.8322    0.0000 N   0  0  0  0  0  0  0  0  0  0  0  0
    0.9483    0.2488    0.0000 C   0  0  1  0  0  0  0  0  0  0  0  0
    1.7733    0.2488    0.0000 C   0  0  1  0  0  0  0  0  0  0  0  0
    2.5579    0.5038    0.0000 S   0  0  0  0  0  0  0  0  0  0  0  0
    3.0428   -0.1637    0.0000 C   0  0  0  0  0  0  0  0  0  0  0  0
    3.6559    0.3884    0.0000 C   0  0  0  0  0  0  0  0  0  0  0  0
    3.6559   -0.7157    0.0000 C   0  0  0  0  0  0  0  0  0  0  0  0
    2.5579   -0.8311    0.0000 C   0  0  1  0  0  0  0  0  0  0  0  0
    1.7733   -0.5762    0.0000 N   0  0  0  0  0  0  0  0  0  0  0  0
    0.9483   -0.5762    0.0000 C   0  0  0  0  0  0  0  0  0  0  0  0
    0.3649   -1.1595    0.0000 O   0  0  0  0  0  0  0  0  0  0  0  0
    2.8129   -1.6157    0.0000 C   0  0  0  0  0  0  0  0  0  0  0  0
    3.6198   -1.7873    0.0000 O   0  0  0  0  0  0  0  0  0  0  0  0
    2.2608   -2.2288    0.0000 O   0  0  0  0  0  0  0  0  0  0  0  0
    0.8592    3.4018    0.0000 C   0  0  0  0  0  0  0  0  0  0  0  0
    1.5511    2.9525    0.0000 C   0  0  0  0  0  0  0  0  0  0  0  0
    2.2862    3.3270    0.0000 C   0  0  0  0  0  0  0  0  0  0  0  0
    2.3294    4.1509    0.0000 C   0  0  0  0  0  0  0  0  0  0  0  0
    1.6375    4.6002    0.0000 C   0  0  0  0  0  0  0  0  0  0  0  0
    0.9024    4.2257    0.0000 C   0  0  0  0  0  0  0  0  0  0  0  0
    0.2105    4.6750    0.0000 Cl  0  0  0  0  0  0  0  0  0  0  0  0
  1  2  1  0  0  0  0
  2  3  4  0  0  0  0
  3  4  4  0  0  0  0
  4  5  4  0  0  0  0
  5  6  4  0  0  0  0
  2  6  4  0  0  0  0
  6  7  1  0  0  0  0
  7  8  2  0  0  0  0
  7  9  1  0  0  0  0
 10  9  1  1  0  0  0
 10 11  1  0  0  0  0
 11 12  1  0  0  0  0
 12 13  1  0  0  0  0
 13 14  1  0  0  0  0
 13 15  1  0  0  0  0
 13 16  1  0  0  0  0
 16 17  1  0  0  0  0
 11 17  1  1  0  0  0
 17 18  1  0  0  0  0
 10 18  1  0  0  0  0
 18 19  2  0  0  0  0
 16 20  1  6  0  0  0
 20 21  2  0  0  0  0
 20 22  1  0  0  0  0
  5 23  1  0  0  0  0
 23 24  4  0  0  0  0
 24 25  4  0  0  0  0
 25 26  4  0  0  0  0
 26 27  4  0  0  0  0
 27 28  4  0  0  0  0
 23 28  4  0  0  0  0
 28 29  1  0  0  0  0
M  END

> <ChembankId>
1337

> <SMILES>
Cc1onc(c1C(=O)N[C@H]2[C@H]3SC(C)(C)[C@@H](N3C2=O)C(=O)O)c4ccccc4Cl

> <InChI>
1/C19H18ClN3O5S/c1-8-11(12(22-28-8)9-6-4-5-7-10(9)20)15(24)21-13-16(25)23-14(18(26)27)19(2,3)29-17(13)23/h4-7,13-14,17H,1-3H3,(H,21,24)(H,26,27)

$$$$
1339
  Marvin  11101114192D          

 22 22  0  0  0  0            999 V2000
   -3.5724    2.0625    0.0000 C   0  0  0  0  0  0  0  0  0  0  0  0
   -2.8579    1.6500    0.0000 C   0  0  0  0  0  0  0  0  0  0  0  0
   -2.1434    2.0625    0.0000 N   0  0  0  0  0  0  0  0  0  0  0  0
   -2.1434    2.8875    0.0000 C   0  0  0  0  0  0  0  0  0  0  0  0
   -1.4289    3.3000    0.0000 C   0  0  0  0  0  0  0  0  0  0  0  0
   -1.4289    1.6500    0.0000 C   0  0  0  0  0  0  0  0  0  0  0  0
   -0.7145    2.0625    0.0000 C   0  0  0  0  0  0  0  0  0  0  0  0
   -0.0000    1.6500    0.0000 N   0  0  0  0  0  0  0  0  0  0  0  0
    0.7145    2.0625    0.0000 C   0  0  0  0  0  0  0  0  0  0  0  0
    1.4289    1.6500    0.0000 O   0  0  0  0  0  0  0  0  0  0  0  0
    0.7145    2.8875    0.0000 C   0  0  0  0  0  0  0  0  0  0  0  0
   -0.0000    3.3000    0.0000 C   0  0  0  0  0  0  0  0  0  0  0  0
   -0.0000    4.1250    0.0000 C   0  0  0  0  0  0  0  0  0  0  0  0
    0.7145    4.5375    0.0000 C   0  0  0  0  0  0  0  0  0  0  0  0
    1.4289    4.1250    0.0000 C   0  0  0  0  0  0  0  0  0  0  0  0
    1.4289    3.3000    0.0000 C   0  0  0  0  0  0  0  0  0  0  0  0
    2.1434    2.8875    0.0000 O   0  0  0  0  0  0  0  0  0  0  0  0
    2.1434    2.0625    0.0000 C   0  0  0  0  0  0  0  0  0  0  0  0
   -0.7145    4.5375    0.0000 S   0  0  0  0  0  0  0  0  0  0  0  0
   -1.4289    4.9500    0.0000 O   0  0  0  0  0  0  0  0  0  0  0  0
   -0.3020    5.2520    0.0000 O   0  0  0  0  0  0  0  0  0  0  0  0
   -1.1270    3.8230    0.0000 C   0  0  0  0  0  0  0  0  0  0  0  0
  1  2  1  0  0  0  0
  2  3  1  0  0  0  0
  3  4  1  0  0  0  0
  4  5  1  0  0  0  0
  3  6  1  0  0  0  0
  6  7  1  0  0  0  0
  7  8  1  0  0  0  0
  8  9  1  0  0  0  0
  9 10  2  0  0  0  0
  9 11  1  0  0  0  0
 11 12  4  0  0  0  0
 12 13  4  0  0  0  0
 13 14  4  0  0  0  0
 14 15  4  0  0  0  0
 15 16  4  0  0  0  0
 11 16  4  0  0  0  0
 16 17  1  0  0  0  0
 17 18  1  0  0  0  0
 13 19  1  0  0  0  0
 19 20  2  0  0  0  0
 19 21  2  0  0  0  0
 19 22  1  0  0  0  0
M  END

> <ChembankId>
1339

> <SMILES>
CCN(CC)CCNC(=O)c1cc(ccc1OC)S(=O)(=O)C

> <InChI>
1/C15H24N2O4S/c1-5-17(6-2)10-9-16-15(18)13-11-12(22(4,19)20)7-8-14(13)21-3/h7-8,11H,5-6,9-10H2,1-4H3,(H,16,18)

$$$$
1346
  Marvin  11101114192D          

 20 20  0  0  0  0            999 V2000
   -4.2868   -4.1250    0.0000 C   0  0  0  0  0  0  0  0  0  0  0  0
   -3.5724   -4.5375    0.0000 C   0  0  0  0  0  0  0  0  0  0  0  0
   -2.8579   -4.1250    0.0000 N   0  0  0  0  0  0  0  0  0  0  0  0
   -2.8579   -3.3000    0.0000 C   0  0  0  0  0  0  0  0  0  0  0  0
   -2.1434   -2.8875    0.0000 C   0  0  0  0  0  0  0  0  0  0  0  0
   -2.1434   -4.5375    0.0000 C   0  0  0  0  0  0  0  0  0  0  0  0
   -1.4289   -4.1250    0.0000 C   0  0  0  0  0  0  0  0  0  0  0  0
   -0.7145   -4.5375    0.0000 N   0  0  0  0  0  0  0  0  0  0  0  0
    0.0000   -4.1250    0.0000 C   0  0  0  0  0  0  0  0  0  0  0  0
    0.0000   -3.3000    0.0000 O   0  0  0  0  0  0  0  0  0  0  0  0
    0.7145   -4.5375    0.0000 C   0  0  0  0  0  0  0  0  0  0  0  0
    1.4289   -4.1250    0.0000 O   0  0  0  0  0  0  0  0  0  0  0  0
    2.1434   -4.5375    0.0000 C   0  0  0  0  0  0  0  0  0  0  0  0
    2.8579   -4.1250    0.0000 C   0  0  0  0  0  0  0  0  0  0  0  0
    3.5724   -4.5375    0.0000 C   0  0  0  0  0  0  0  0  0  0  0  0
    3.5724   -5.3625    0.0000 C   0  0  0  0  0  0  0  0  0  0  0  0
    4.2868   -5.7750    0.0000 O   0  0  0  0  0  0  0  0  0  0  0  0
    5.0013   -5.3625    0.0000 C   0  0  0  0  0  0  0  0  0  0  0  0
    2.8579   -5.7750    0.0000 C   0  0  0  0  0  0  0  0  0  0  0  0
    2.1434   -5.3625    0.0000 C   0  0  0  0  0  0  0  0  0  0  0  0
  1  2  1  0  0  0  0
  2  3  1  0  0  0  0
  3  4  1  0  0  0  0
  4  5  1  0  0  0  0
  3  6  1  0  0  0  0
  6  7  1  0  0  0  0
  7  8  1  0  0  0  0
  8  9  1  0  0  0  0
  9 10  2  0  0  0  0
  9 11  1  0  0  0  0
 11 12  1  0  0  0  0
 12 13  1  0  0  0  0
 13 14  4  0  0  0  0
 14 15  4  0  0  0  0
 15 16  4  0  0  0  0
 16 17  1  0  0  0  0
 17 18  1  0  0  0  0
 16 19  4  0  0  0  0
 19 20  4  0  0  0  0
 13 20  4  0  0  0  0
M  END

> <ChembankId>
1346

> <SMILES>
CCN(CC)CCNC(=O)COc1ccc(OC)cc1

> <InChI>
1/C15H24N2O3/c1-4-17(5-2)11-10-16-15(18)12-20-14-8-6-13(19-3)7-9-14/h6-9H,4-5,10-12H2,1-3H3,(H,16,18)

$$$$
1348
  Marvin  11101114192D          

 27 30  0  0  0  0            999 V2000
    0.4944    8.5354    0.0000 Cl  0  0  0  0  0  0  0  0  0  0  0  0
    1.2089    8.1229    0.0000 C   0  0  0  0  0  0  0  0  0  0  0  0
    1.9233    8.5354    0.0000 C   0  0  0  0  0  0  0  0  0  0  0  0
    2.6378    8.1229    0.0000 C   0  0  0  0  0  0  0  0  0  0  0  0
    2.6378    7.2979    0.0000 C   0  0  0  0  0  0  0  0  0  0  0  0
    3.3523    6.8854    0.0000 O   0  0  0  0  0  0  0  0  0  0  0  0
    3.3523    6.0604    0.0000 C   0  0  0  0  0  0  0  0  0  0  0  0
    4.0668    5.6479    0.0000 C   0  0  0  0  0  0  0  0  0  0  0  0
    4.7812    6.0604    0.0000 O   0  0  0  0  0  0  0  0  0  0  0  0
    4.0668    4.8229    0.0000 N   0  0  0  0  0  0  0  0  0  0  0  0
    4.7812    4.4104    0.0000 C   0  0  0  0  0  0  0  0  0  0  0  0
    4.7812    3.5854    0.0000 C   0  0  0  0  0  0  0  0  0  0  0  0
    4.0668    3.1729    0.0000 N   0  0  0  0  0  0  0  0  0  0  0  0
    4.0668    2.3479    0.0000 C   0  0  0  0  0  0  0  0  0  0  0  0
    3.3523    1.9354    0.0000 C   0  0  0  0  0  0  0  0  0  0  0  0
    3.3523    1.1104    0.0000 C   0  0  0  0  0  0  0  0  0  0  0  0
    2.6378    0.6979    0.0000 C   0  0  0  0  0  0  0  0  0  0  0  0
    1.9233    1.1104    0.0000 C   0  0  0  0  0  0  0  0  0  0  0  0
    1.1387    0.8555    0.0000 O   0  0  0  0  0  0  0  0  0  0  0  0
    0.6538    1.5229    0.0000 C   0  0  0  0  0  0  0  0  0  0  0  0
    1.1387    2.1904    0.0000 O   0  0  0  0  0  0  0  0  0  0  0  0
    1.9233    1.9354    0.0000 C   0  0  0  0  0  0  0  0  0  0  0  0
    2.6378    2.3479    0.0000 C   0  0  0  0  0  0  0  0  0  0  0  0
    3.3523    3.5854    0.0000 C   0  0  0  0  0  0  0  0  0  0  0  0
    3.3523    4.4104    0.0000 C   0  0  0  0  0  0  0  0  0  0  0  0
    1.9233    6.8854    0.0000 C   0  0  0  0  0  0  0  0  0  0  0  0
    1.2089    7.2979    0.0000 C   0  0  0  0  0  0  0  0  0  0  0  0
  1  2  1  0  0  0  0
  2  3  4  0  0  0  0
  3  4  4  0  0  0  0
  4  5  4  0  0  0  0
  5  6  1  0  0  0  0
  6  7  1  0  0  0  0
  7  8  1  0  0  0  0
  8  9  2  0  0  0  0
  8 10  1  0  0  0  0
 10 11  1  0  0  0  0
 11 12  1  0  0  0  0
 12 13  1  0  0  0  0
 13 14  1  0  0  0  0
 14 15  1  0  0  0  0
 15 16  4  0  0  0  0
 16 17  4  0  0  0  0
 17 18  4  0  0  0  0
 18 19  1  0  0  0  0
 19 20  1  0  0  0  0
 20 21  1  0  0  0  0
 21 22  1  0  0  0  0
 18 22  4  0  0  0  0
 22 23  4  0  0  0  0
 15 23  4  0  0  0  0
 13 24  1  0  0  0  0
 24 25  1  0  0  0  0
 10 25  1  0  0  0  0
  5 26  4  0  0  0  0
 26 27  4  0  0  0  0
  2 27  4  0  0  0  0
M  END

> <ChembankId>
1348

> <SMILES>
Clc1ccc(OCC(=O)N2CCN(Cc3ccc4OCOc4c3)CC2)cc1

> <InChI>
1/C20H21ClN2O4/c21-16-2-4-17(5-3-16)25-13-20(24)23-9-7-22(8-10-23)12-15-1-6-18-19(11-15)27-14-26-18/h1-6,11H,7-10,12-14H2

$$$$
1351
  Marvin  11101114192D          

 34 37  0  0  0  0            999 V2000
    3.5724    3.7125    0.0000 C   0  0  0  0  0  0  0  0  0  0  0  0
    3.5724    4.5375    0.0000 C   0  0  0  0  0  0  0  0  0  0  0  0
    2.8579    4.9500    0.0000 C   0  0  0  0  0  0  0  0  0  0  0  0
    2.8579    5.7750    0.0000 C   0  0  0  0  0  0  0  0  0  0  0  0
    2.1434    6.1875    0.0000 N   0  0  0  0  0  0  0  0  0  0  0  0
    3.5724    6.1875    0.0000 C   0  0  0  0  0  0  0  0  0  0  0  0
    3.5724    7.0125    0.0000 C   0  0  0  0  0  0  0  0  0  0  0  0
    4.2868    7.4250    0.0000 C   0  0  0  0  0  0  0  0  0  0  0  0
    5.0013    7.0125    0.0000 C   0  0  0  0  0  0  0  0  0  0  0  0
    5.0013    6.1875    0.0000 C   0  0  0  0  0  0  0  0  0  0  0  0
    4.2868    5.7750    0.0000 C   0  0  0  0  0  0  0  0  0  0  0  0
    4.2868    4.9500    0.0000 N   0  3  0  0  0  0  0  0  0  0  0  0
    5.0013    4.5375    0.0000 C   0  0  0  0  0  0  0  0  0  0  0  0
    5.7158    4.9500    0.0000 C   0  0  0  0  0  0  0  0  0  0  0  0
    6.4302    4.5375    0.0000 C   0  0  0  0  0  0  0  0  0  0  0  0
    7.1447    4.9500    0.0000 C   0  0  0  0  0  0  0  0  0  0  0  0
    7.8592    4.5375    0.0000 C   0  0  0  0  0  0  0  0  0  0  0  0
    8.5737    4.9500    0.0000 C   0  0  0  0  0  0  0  0  0  0  0  0
    9.2881    4.5375    0.0000 C   0  0  0  0  0  0  0  0  0  0  0  0
   10.0026    4.9500    0.0000 C   0  0  0  0  0  0  0  0  0  0  0  0
   10.7171    4.5375    0.0000 C   0  0  0  0  0  0  0  0  0  0  0  0
   11.4315    4.9500    0.0000 C   0  0  0  0  0  0  0  0  0  0  0  0
   12.1460    4.5375    0.0000 N   0  3  0  0  0  0  0  0  0  0  0  0
   12.8605    4.9500    0.0000 C   0  0  0  0  0  0  0  0  0  0  0  0
   12.8605    5.7750    0.0000 C   0  0  0  0  0  0  0  0  0  0  0  0
   13.5749    4.5375    0.0000 C   0  0  0  0  0  0  0  0  0  0  0  0
   13.5749    3.7125    0.0000 C   0  0  0  0  0  0  0  0  0  0  0  0
   14.2894    3.3000    0.0000 N   0  0  0  0  0  0  0  0  0  0  0  0
   12.8605    3.3000    0.0000 C   0  0  0  0  0  0  0  0  0  0  0  0
   12.8605    2.4750    0.0000 C   0  0  0  0  0  0  0  0  0  0  0  0
   12.1460    2.0625    0.0000 C   0  0  0  0  0  0  0  0  0  0  0  0
   11.4315    2.4750    0.0000 C   0  0  0  0  0  0  0  0  0  0  0  0
   11.4315    3.3000    0.0000 C   0  0  0  0  0  0  0  0  0  0  0  0
   12.1460    3.7125    0.0000 C   0  0  0  0  0  0  0  0  0  0  0  0
  1  2  1  0  0  0  0
  2  3  4  0  0  0  0
  3  4  4  0  0  0  0
  4  5  1  0  0  0  0
  4  6  4  0  0  0  0
  6  7  4  0  0  0  0
  7  8  4  0  0  0  0
  8  9  4  0  0  0  0
  9 10  4  0  0  0  0
 10 11  4  0  0  0  0
  6 11  4  0  0  0  0
 11 12  4  0  0  0  0
  2 12  4  0  0  0  0
 12 13  1  0  0  0  0
 13 14  1  0  0  0  0
 14 15  1  0  0  0  0
 15 16  1  0  0  0  0
 16 17  1  0  0  0  0
 17 18  1  0  0  0  0
 18 19  1  0  0  0  0
 19 20  1  0  0  0  0
 20 21  1  0  0  0  0
 21 22  1  0  0  0  0
 22 23  1  0  0  0  0
 23 24  4  0  0  0  0
 24 25  1  0  0  0  0
 24 26  4  0  0  0  0
 26 27  4  0  0  0  0
 27 28  1  0  0  0  0
 27 29  4  0  0  0  0
 29 30  4  0  0  0  0
 30 31  4  0  0  0  0
 31 32  4  0  0  0  0
 32 33  4  0  0  0  0
 33 34  4  0  0  0  0
 23 34  4  0  0  0  0
 29 34  4  0  0  0  0
M  CHG  2  12   1  23   1
M  END

> <ChembankId>
1351

> <SMILES>
Cc1cc(N)c2ccccc2[n+]1CCCCCCCCCC[n+]3c(C)cc(N)c4ccccc34

> <InChI>
1/C30H38N4/c1-23-21-27(31)25-15-9-11-17-29(25)33(23)19-13-7-5-3-4-6-8-14-20-34-24(2)22-28(32)26-16-10-12-18-30(26)34/h9-12,15-18,21-22,31-32H,3-8,13-14,19-20H2,1-2H3/p+2

$$$$
1352
  Marvin  11101114192D          

 29 31  0  0  1  0            999 V2000
    0.9119   -2.3376    0.0000 C   0  0  0  0  0  0  0  0  0  0  0  0
    1.1867   -1.5597    0.0000 O   0  0  0  0  0  0  0  0  0  0  0  0
    1.9977   -1.4087    0.0000 C   0  0  0  0  0  0  0  0  0  0  0  0
    2.2725   -0.6308    0.0000 C   0  0  0  0  0  0  0  0  0  0  0  0
    3.0836   -0.4798    0.0000 C   0  0  0  0  0  0  0  0  0  0  0  0
    3.2393    0.3304    0.0000 C   0  0  0  0  0  0  0  0  0  0  0  0
    3.9698    0.7138    0.0000 C   0  0  0  0  0  0  0  0  0  0  0  0
    4.7250    0.3817    0.0000 C   0  0  2  0  0  0  0  0  0  0  0  0
    5.3519    0.9180    0.0000 N   0  0  0  0  0  0  0  0  0  0  0  0
    5.2009    1.7290    0.0000 C   0  0  0  0  0  0  0  0  0  0  0  0
    4.4230    2.0038    0.0000 O   0  0  0  0  0  0  0  0  0  0  0  0
    5.8278    2.2654    0.0000 C   0  0  0  0  0  0  0  0  0  0  0  0
    4.9362   -0.4158    0.0000 C   0  0  0  0  0  0  0  0  0  0  0  0
    5.7607   -0.3874    0.0000 C   0  0  0  0  0  0  0  0  0  0  0  0
    6.2970   -1.0143    0.0000 C   0  0  0  0  0  0  0  0  0  0  0  0
    7.0945   -0.8031    0.0000 O   0  0  0  0  0  0  0  0  0  0  0  0
    6.1413   -1.8245    0.0000 C   0  0  0  0  0  0  0  0  0  0  0  0
    6.8037   -2.3163    0.0000 O   0  0  0  0  0  0  0  0  0  0  0  0
    7.5608   -1.9886    0.0000 C   0  0  0  0  0  0  0  0  0  0  0  0
    5.4108   -2.2078    0.0000 C   0  0  0  0  0  0  0  0  0  0  0  0
    4.6556   -1.8757    0.0000 C   0  0  0  0  0  0  0  0  0  0  0  0
    4.4444   -1.0782    0.0000 C   0  0  0  0  0  0  0  0  0  0  0  0
    3.6199   -1.1067    0.0000 C   0  0  0  0  0  0  0  0  0  0  0  0
    3.3451   -1.8846    0.0000 C   0  0  0  0  0  0  0  0  0  0  0  0
    3.8814   -2.5115    0.0000 O   0  0  0  0  0  0  0  0  0  0  0  0
    3.6067   -3.2894    0.0000 C   0  0  0  0  0  0  0  0  0  0  0  0
    2.5341   -2.0356    0.0000 C   0  0  0  0  0  0  0  0  0  0  0  0
    2.2593   -2.8135    0.0000 O   0  0  0  0  0  0  0  0  0  0  0  0
    1.4483   -2.9645    0.0000 C   0  0  0  0  0  0  0  0  0  0  0  0
  1  2  1  0  0  0  0
  2  3  1  0  0  0  0
  3  4  4  0  0  0  0
  4  5  4  0  0  0  0
  5  6  1  0  0  0  0
  6  7  1  0  0  0  0
  7  8  1  0  0  0  0
  8  9  1  6  0  0  0
  9 10  1  0  0  0  0
 10 11  2  0  0  0  0
 10 12  1  0  0  0  0
  8 13  1  0  0  0  0
 13 14  4  0  0  0  0
 14 15  4  0  0  0  0
 15 16  2  0  0  0  0
 15 17  4  0  0  0  0
 17 18  1  0  0  0  0
 18 19  1  0  0  0  0
 17 20  4  0  0  0  0
 20 21  4  0  0  0  0
 21 22  4  0  0  0  0
 13 22  4  0  0  0  0
 22 23  1  0  0  0  0
  5 23  4  0  0  0  0
 23 24  4  0  0  0  0
 24 25  1  0  0  0  0
 25 26  1  0  0  0  0
 24 27  4  0  0  0  0
  3 27  4  0  0  0  0
 27 28  1  0  0  0  0
 28 29  1  0  0  0  0
M  END

> <ChembankId>
1352

> <SMILES>
COc1cc2CC[C@H](NC(=O)C)c3cc(=O)c(OC)ccc3-c2c(OC)c1OC

> <InChI>
1/C22H25NO6/c1-12(24)23-16-8-6-13-10-19(27-3)21(28-4)22(29-5)20(13)14-7-9-18(26-2)17(25)11-15(14)16/h7,9-11,16H,6,8H2,1-5H3,(H,23,24)

$$$$
1357
  Marvin  11101114192D          

 21 22  0  0  0  0            999 V2000
   -1.4289   -0.0000    0.0000 C   0  0  0  0  0  0  0  0  0  0  0  0
   -0.7145   -0.4125    0.0000 C   0  0  0  0  0  0  0  0  0  0  0  0
   -0.7145   -1.2375    0.0000 C   0  0  0  0  0  0  0  0  0  0  0  0
    0.0000   -1.6500    0.0000 C   0  0  0  0  0  0  0  0  0  0  0  0
    0.0000   -2.4750    0.0000 N   0  0  0  0  0  0  0  0  0  0  0  0
   -0.7145   -2.8875    0.0000 C   0  0  0  0  0  0  0  0  0  0  0  0
   -0.7145   -3.7125    0.0000 C   0  0  0  0  0  0  0  0  0  0  0  0
    0.0000   -4.1250    0.0000 C   0  0  0  0  0  0  0  0  0  0  0  0
    0.7145   -3.7125    0.0000 C   0  0  0  0  0  0  0  0  0  0  0  0
    0.7145   -2.8875    0.0000 C   0  0  0  0  0  0  0  0  0  0  0  0
    1.4289   -2.4750    0.0000 C   0  0  0  0  0  0  0  0  0  0  0  0
    1.4289   -1.6500    0.0000 O   0  0  0  0  0  0  0  0  0  0  0  0
    2.1434   -2.8875    0.0000 N   0  0  0  0  0  0  0  0  0  0  0  0
    2.8579   -2.4750    0.0000 C   0  0  0  0  0  0  0  0  0  0  0  0
    2.8579   -1.6500    0.0000 C   0  0  0  0  0  0  0  0  0  0  0  0
    2.1434   -1.2375    0.0000 C   0  0  0  0  0  0  0  0  0  0  0  0
    3.5724   -1.2375    0.0000 C   0  0  0  0  0  0  0  0  0  0  0  0
    4.2868   -1.6500    0.0000 C   0  0  0  0  0  0  0  0  0  0  0  0
    4.2868   -2.4750    0.0000 C   0  0  0  0  0  0  0  0  0  0  0  0
    3.5724   -2.8875    0.0000 C   0  0  0  0  0  0  0  0  0  0  0  0
    3.5724   -3.7125    0.0000 C   0  0  0  0  0  0  0  0  0  0  0  0
  1  2  1  0  0  0  0
  2  3  1  0  0  0  0
  3  4  1  0  0  0  0
  4  5  1  0  0  0  0
  5  6  1  0  0  0  0
  6  7  1  0  0  0  0
  7  8  1  0  0  0  0
  8  9  1  0  0  0  0
  9 10  1  0  0  0  0
  5 10  1  0  0  0  0
 10 11  1  0  0  0  0
 11 12  2  0  0  0  0
 11 13  1  0  0  0  0
 13 14  1  0  0  0  0
 14 15  4  0  0  0  0
 15 16  1  0  0  0  0
 15 17  4  0  0  0  0
 17 18  4  0  0  0  0
 18 19  4  0  0  0  0
 19 20  4  0  0  0  0
 14 20  4  0  0  0  0
 20 21  1  0  0  0  0
M  END

> <ChembankId>
1357

> <SMILES>
CCCCN1CCCCC1C(=O)Nc2c(C)cccc2C

> <InChI>
1/C18H28N2O/c1-4-5-12-20-13-7-6-11-16(20)18(21)19-17-14(2)9-8-10-15(17)3/h8-10,16H,4-7,11-13H2,1-3H3,(H,19,21)

$$$$
1360
  Marvin  11101114192D          

 34 35  0  0  0  0            999 V2000
    2.1434   -8.6625    0.0000 Cl  0  0  0  0  0  0  0  0  0  0  0  0
    2.8579   -9.0750    0.0000 C   0  0  0  0  0  0  0  0  0  0  0  0
    3.5724   -8.6625    0.0000 C   0  0  0  0  0  0  0  0  0  0  0  0
    4.2868   -9.0750    0.0000 C   0  0  0  0  0  0  0  0  0  0  0  0
    4.2868   -9.9000    0.0000 C   0  0  0  0  0  0  0  0  0  0  0  0
    5.0013  -10.3125    0.0000 N   0  0  0  0  0  0  0  0  0  0  0  0
    5.7158   -9.9000    0.0000 C   0  0  0  0  0  0  0  0  0  0  0  0
    5.7158   -9.0750    0.0000 N   0  0  0  0  0  0  0  0  0  0  0  0
    6.4302  -10.3125    0.0000 N   0  0  0  0  0  0  0  0  0  0  0  0
    7.1447   -9.9000    0.0000 C   0  0  0  0  0  0  0  0  0  0  0  0
    7.1447   -9.0750    0.0000 N   0  0  0  0  0  0  0  0  0  0  0  0
    7.8592  -10.3125    0.0000 N   0  0  0  0  0  0  0  0  0  0  0  0
    8.5737   -9.9000    0.0000 C   0  0  0  0  0  0  0  0  0  0  0  0
    9.2881  -10.3125    0.0000 C   0  0  0  0  0  0  0  0  0  0  0  0
   10.0026   -9.9000    0.0000 C   0  0  0  0  0  0  0  0  0  0  0  0
   10.7171  -10.3125    0.0000 C   0  0  0  0  0  0  0  0  0  0  0  0
   11.4315   -9.9000    0.0000 C   0  0  0  0  0  0  0  0  0  0  0  0
   12.1460  -10.3125    0.0000 C   0  0  0  0  0  0  0  0  0  0  0  0
   12.8605   -9.9000    0.0000 N   0  0  0  0  0  0  0  0  0  0  0  0
   13.5749  -10.3125    0.0000 C   0  0  0  0  0  0  0  0  0  0  0  0
   13.5749  -11.1375    0.0000 N   0  0  0  0  0  0  0  0  0  0  0  0
   14.2894   -9.9000    0.0000 N   0  0  0  0  0  0  0  0  0  0  0  0
   15.0039  -10.3125    0.0000 C   0  0  0  0  0  0  0  0  0  0  0  0
   15.0039  -11.1375    0.0000 N   0  0  0  0  0  0  0  0  0  0  0  0
   15.7184   -9.9000    0.0000 N   0  0  0  0  0  0  0  0  0  0  0  0
   16.4328  -10.3125    0.0000 C   0  0  0  0  0  0  0  0  0  0  0  0
   17.1473   -9.9000    0.0000 C   0  0  0  0  0  0  0  0  0  0  0  0
   17.8618  -10.3125    0.0000 C   0  0  0  0  0  0  0  0  0  0  0  0
   17.8618  -11.1375    0.0000 C   0  0  0  0  0  0  0  0  0  0  0  0
   18.5762  -11.5500    0.0000 Cl  0  0  0  0  0  0  0  0  0  0  0  0
   17.1473  -11.5500    0.0000 C   0  0  0  0  0  0  0  0  0  0  0  0
   16.4328  -11.1375    0.0000 C   0  0  0  0  0  0  0  0  0  0  0  0
    3.5724  -10.3125    0.0000 C   0  0  0  0  0  0  0  0  0  0  0  0
    2.8579   -9.9000    0.0000 C   0  0  0  0  0  0  0  0  0  0  0  0
  1  2  1  0  0  0  0
  2  3  4  0  0  0  0
  3  4  4  0  0  0  0
  4  5  4  0  0  0  0
  5  6  1  0  0  0  0
  6  7  1  0  0  0  0
  7  8  2  0  0  0  0
  7  9  1  0  0  0  0
  9 10  1  0  0  0  0
 10 11  2  0  0  0  0
 10 12  1  0  0  0  0
 12 13  1  0  0  0  0
 13 14  1  0  0  0  0
 14 15  1  0  0  0  0
 15 16  1  0  0  0  0
 16 17  1  0  0  0  0
 17 18  1  0  0  0  0
 18 19  1  0  0  0  0
 19 20  1  0  0  0  0
 20 21  2  0  0  0  0
 20 22  1  0  0  0  0
 22 23  1  0  0  0  0
 23 24  2  0  0  0  0
 23 25  1  0  0  0  0
 25 26  1  0  0  0  0
 26 27  4  0  0  0  0
 27 28  4  0  0  0  0
 28 29  4  0  0  0  0
 29 30  1  0  0  0  0
 29 31  4  0  0  0  0
 31 32  4  0  0  0  0
 26 32  4  0  0  0  0
  5 33  4  0  0  0  0
 33 34  4  0  0  0  0
  2 34  4  0  0  0  0
M  END

> <ChembankId>
1360

> <SMILES>
Clc1ccc(NC(=N)NC(=N)NCCCCCCNC(=N)NC(=N)Nc2ccc(Cl)cc2)cc1

> <InChI>
1/C22H30Cl2N10/c23-15-5-9-17(10-6-15)31-21(27)33-19(25)29-13-3-1-2-4-14-30-20(26)34-22(28)32-18-11-7-16(24)8-12-18/h5-12H,1-4,13-14H2,(H5,25,27,29,31,33)(H5,26,28,30,32,34)

$$$$
1362
  Marvin  11101114192D          

 16 18  0  0  0  0            999 V2000
    1.4289    2.4750    0.0000 C   0  0  0  0  0  0  0  0  0  0  0  0
    2.1434    2.0625    0.0000 O   0  0  0  0  0  0  0  0  0  0  0  0
    2.1434    1.2375    0.0000 C   0  0  0  0  0  0  0  0  0  0  0  0
    2.8579    0.8250    0.0000 C   0  0  0  0  0  0  0  0  0  0  0  0
    3.6425    1.0799    0.0000 O   0  0  0  0  0  0  0  0  0  0  0  0
    4.1274    0.4125    0.0000 C   0  0  0  0  0  0  0  0  0  0  0  0
    3.6425   -0.2549    0.0000 C   0  0  0  0  0  0  0  0  0  0  0  0
    2.8579    0.0000    0.0000 C   0  0  0  0  0  0  0  0  0  0  0  0
    2.1434   -0.4125    0.0000 C   0  0  0  0  0  0  0  0  0  0  0  0
    1.4289    0.0000    0.0000 C   0  0  0  0  0  0  0  0  0  0  0  0
    0.7145   -0.4125    0.0000 C   0  0  0  0  0  0  0  0  0  0  0  0
    0.0000    0.0000    0.0000 C   0  0  0  0  0  0  0  0  0  0  0  0
    0.0000    0.8250    0.0000 C   0  0  0  0  0  0  0  0  0  0  0  0
   -0.7145    1.2375    0.0000 O   0  0  0  0  0  0  0  0  0  0  0  0
    0.7145    1.2375    0.0000 O   0  0  0  0  0  0  0  0  0  0  0  0
    1.4289    0.8250    0.0000 C   0  0  0  0  0  0  0  0  0  0  0  0
  1  2  1  0  0  0  0
  2  3  1  0  0  0  0
  3  4  4  0  0  0  0
  4  5  4  0  0  0  0
  5  6  4  0  0  0  0
  6  7  4  0  0  0  0
  7  8  4  0  0  0  0
  4  8  4  0  0  0  0
  8  9  4  0  0  0  0
  9 10  4  0  0  0  0
 10 11  4  0  0  0  0
 11 12  4  0  0  0  0
 12 13  4  0  0  0  0
 13 14  2  0  0  0  0
 13 15  4  0  0  0  0
 15 16  4  0  0  0  0
  3 16  4  0  0  0  0
 10 16  4  0  0  0  0
M  END

> <ChembankId>
1362

> <SMILES>
COc1c2occc2cc3ccc(=O)oc13

> <InChI>
1/C12H8O4/c1-14-12-10-8(4-5-15-10)6-7-2-3-9(13)16-11(7)12/h2-6H,1H3

$$$$
1368
  Marvin  11101114192D          

100103  0  0  0  0            999 V2000
  -11.0866   -0.6467    0.0000 C   0  0  0  0  0  0  0  0  0  0  0  0
  -10.7891    0.1228    0.0000 C   0  0  0  0  0  0  0  0  0  0  0  0
   -9.9739    0.2498    0.0000 C   0  0  0  0  0  0  0  0  0  0  0  0
   -9.4563   -0.3926    0.0000 C   0  0  0  0  0  0  0  0  0  0  0  0
   -9.6764    1.0193    0.0000 C   0  0  0  0  0  0  0  0  0  0  0  0
  -10.1940    1.6617    0.0000 N   0  0  0  0  0  0  0  0  0  0  0  0
   -8.8612    1.1464    0.0000 C   0  0  0  0  0  0  0  0  0  0  0  0
   -8.4849    1.8805    0.0000 N   0  0  0  0  0  0  0  0  0  0  0  0
   -7.6704    1.7495    0.0000 C   0  0  0  0  0  0  0  0  0  0  0  0
   -7.5433    0.9343    0.0000 C   0  0  0  0  0  0  0  0  0  0  0  0
   -8.2793    0.5616    0.0000 S   0  0  0  0  0  0  0  0  0  0  0  0
   -7.0856    2.3314    0.0000 C   0  0  0  0  0  0  0  0  0  0  0  0
   -7.2971    3.1288    0.0000 O   0  0  0  0  0  0  0  0  0  0  0  0
   -6.2892    2.1159    0.0000 N   0  0  0  0  0  0  0  0  0  0  0  0
   -5.7044    2.6979    0.0000 C   0  0  0  0  0  0  0  0  0  0  0  0
   -6.1575    3.3956    0.0000 C   0  0  0  0  0  0  0  0  0  0  0  0
   -6.8179    3.8925    0.0000 C   0  0  0  0  0  0  0  0  0  0  0  0
   -7.5771    3.5696    0.0000 C   0  0  0  0  0  0  0  0  0  0  0  0
   -6.7179    4.7114    0.0000 C   0  0  0  0  0  0  0  0  0  0  0  0
   -4.8733    2.4730    0.0000 C   0  0  0  0  0  0  0  0  0  0  0  0
   -4.8241    1.6494    0.0000 O   0  0  0  0  0  0  0  0  0  0  0  0
   -4.1521    2.9487    0.0000 N   0  0  0  0  0  0  0  0  0  0  0  0
   -3.3734    2.6757    0.0000 C   0  0  0  0  0  0  0  0  0  0  0  0
   -2.8052    2.0776    0.0000 C   0  0  0  0  0  0  0  0  0  0  0  0
   -2.0031    2.2706    0.0000 C   0  0  0  0  0  0  0  0  0  0  0  0
   -1.4349    1.6725    0.0000 C   0  0  0  0  0  0  0  0  0  0  0  0
   -1.6687    0.8814    0.0000 O   0  0  0  0  0  0  0  0  0  0  0  0
   -0.6328    1.8655    0.0000 O   0  0  0  0  0  0  0  0  0  0  0  0
   -3.1312    3.4948    0.0000 C   0  0  0  0  0  0  0  0  0  0  0  0
   -3.5579    4.2009    0.0000 O   0  0  0  0  0  0  0  0  0  0  0  0
   -2.3138    3.5112    0.0000 N   0  0  0  0  0  0  0  0  0  0  0  0
   -1.8135    4.1710    0.0000 C   0  0  0  0  0  0  0  0  0  0  0  0
   -1.9648    4.9984    0.0000 C   0  0  0  0  0  0  0  0  0  0  0  0
   -1.3362    5.5327    0.0000 C   0  0  0  0  0  0  0  0  0  0  0  0
   -2.7419    5.2756    0.0000 C   0  0  0  0  0  0  0  0  0  0  0  0
   -2.8903    6.0872    0.0000 C   0  0  0  0  0  0  0  0  0  0  0  0
   -1.1390    3.6185    0.0000 C   0  0  0  0  0  0  0  0  0  0  0  0
   -0.6767    2.8899    0.0000 O   0  0  0  0  0  0  0  0  0  0  0  0
   -0.7409    4.3772    0.0000 N   0  0  0  0  0  0  0  0  0  0  0  0
    0.0434    4.0518    0.0000 C   0  0  0  0  0  0  0  0  0  0  0  0
    0.8275    4.3952    0.0000 C   0  0  0  0  0  0  0  0  0  0  0  0
    1.6598    4.1170    0.0000 C   0  0  0  0  0  0  0  0  0  0  0  0
    2.4574    3.8925    0.0000 C   0  0  0  0  0  0  0  0  0  0  0  0
    1.7729    3.4219    0.0000 C   0  0  0  0  0  0  0  0  0  0  0  0
    1.0064    3.7270    0.0000 N   0  0  0  0  0  0  0  0  0  0  0  0
    1.0597    4.5502    0.0000 C   0  0  0  0  0  0  0  0  0  0  0  0
    0.4164    5.1557    0.0000 O   0  0  0  0  0  0  0  0  0  0  0  0
    1.8591    4.7540    0.0000 C   0  0  0  0  0  0  0  0  0  0  0  0
    1.5057    5.5729    0.0000 C   0  0  0  0  0  0  0  0  0  0  0  0
    1.1963    6.3744    0.0000 C   0  0  0  0  0  0  0  0  0  0  0  0
    0.8278    7.1287    0.0000 O   0  0  0  0  0  0  0  0  0  0  0  0
    1.5051    7.1760    0.0000 N   0  0  0  0  0  0  0  0  0  0  0  0
    2.3922    5.4826    0.0000 N   0  0  0  0  0  0  0  0  0  0  0  0
    3.2155    5.4293    0.0000 C   0  0  0  0  0  0  0  0  0  0  0  0
    3.8888    4.9217    0.0000 O   0  0  0  0  0  0  0  0  0  0  0  0
    3.6732    6.1157    0.0000 C   0  0  0  0  0  0  0  0  0  0  0  0
    3.2888    6.9145    0.0000 C   0  0  0  0  0  0  0  0  0  0  0  0
    3.1959    7.7678    0.0000 C   0  0  0  0  0  0  0  0  0  0  0  0
    2.7730    8.4031    0.0000 O   0  0  0  0  0  0  0  0  0  0  0  0
    3.0209    8.6253    0.0000 O   0  0  0  0  0  0  0  0  0  0  0  0
    4.4965    6.0624    0.0000 N   0  0  0  0  0  0  0  0  0  0  0  0
    4.9543    6.7488    0.0000 C   0  0  0  0  0  0  0  0  0  0  0  0
    4.3330    7.3458    0.0000 O   0  0  0  0  0  0  0  0  0  0  0  0
    5.7775    6.6955    0.0000 C   0  0  0  0  0  0  0  0  0  0  0  0
    6.2724    7.4024    0.0000 C   0  0  0  0  0  0  0  0  0  0  0  0
    5.8698    8.1215    0.0000 C   0  0  0  0  0  0  0  0  0  0  0  0
    5.0543    8.2462    0.0000 C   0  0  0  0  0  0  0  0  0  0  0  0
    4.9209    9.0603    0.0000 N   0  0  0  0  0  0  0  0  0  0  0  0
    5.6539    9.4388    0.0000 C   0  0  0  0  0  0  0  0  0  0  0  0
    6.2404    8.8586    0.0000 N   0  0  0  0  0  0  0  0  0  0  0  0
    6.1431    5.9559    0.0000 N   0  0  0  0  0  0  0  0  0  0  0  0
    6.9663    5.9027    0.0000 C   0  0  0  0  0  0  0  0  0  0  0  0
    7.5509    6.5131    0.0000 O   0  0  0  0  0  0  0  0  0  0  0  0
    7.3319    5.1631    0.0000 C   0  0  0  0  0  0  0  0  0  0  0  0
    8.1721    5.1313    0.0000 C   0  0  0  0  0  0  0  0  0  0  0  0
    8.5207    4.3702    0.0000 C   0  0  0  0  0  0  0  0  0  0  0  0
    9.3393    4.2682    0.0000 C   0  0  0  0  0  0  0  0  0  0  0  0
    9.6603    3.5082    0.0000 C   0  0  0  0  0  0  0  0  0  0  0  0
    9.1626    2.8502    0.0000 C   0  0  0  0  0  0  0  0  0  0  0  0
    8.3440    2.9522    0.0000 C   0  0  0  0  0  0  0  0  0  0  0  0
    8.0230    3.7122    0.0000 C   0  0  0  0  0  0  0  0  0  0  0  0
    6.8741    4.4767    0.0000 N   0  0  0  0  0  0  0  0  0  0  0  0
    6.0508    4.5300    0.0000 C   0  0  0  0  0  0  0  0  0  0  0  0
    5.2306    4.5022    0.0000 O   0  0  0  0  0  0  0  0  0  0  0  0
    5.5931    3.8436    0.0000 C   0  0  0  0  0  0  0  0  0  0  0  0
    4.7698    3.8969    0.0000 N   0  0  0  0  0  0  0  0  0  0  0  0
    4.3120    3.2105    0.0000 C   0  0  0  0  0  0  0  0  0  0  0  0
    4.6066    2.4397    0.0000 O   0  0  0  0  0  0  0  0  0  0  0  0
    3.4887    3.2638    0.0000 C   0  0  0  0  0  0  0  0  0  0  0  0
    3.8251    2.3949    0.0000 C   0  0  0  0  0  0  0  0  0  0  0  0
    3.9241    1.5320    0.0000 C   0  0  0  0  0  0  0  0  0  0  0  0
    3.8148    0.6979    0.0000 C   0  0  0  0  0  0  0  0  0  0  0  0
    3.5040   -0.0754    0.0000 N   0  0  0  0  0  0  0  0  0  0  0  0
    3.0310    2.5774    0.0000 N   0  0  0  0  0  0  0  0  0  0  0  0
    2.2077    2.6307    0.0000 C   0  0  0  0  0  0  0  0  0  0  0  0
    1.7431    1.9241    0.0000 O   0  0  0  0  0  0  0  0  0  0  0  0
    6.0311    3.0549    0.0000 C   0  0  0  0  0  0  0  0  0  0  0  0
    6.2015    2.3020    0.0000 C   0  0  0  0  0  0  0  0  0  0  0  0
    6.5343    2.3412    0.0000 C   0  0  0  0  0  0  0  0  0  0  0  0
    6.9988    1.6091    0.0000 C   0  0  0  0  0  0  0  0  0  0  0  0
  1  2  1  0  0  0  0
  2  3  1  0  0  0  0
  3  4  1  0  0  0  0
  3  5  1  0  0  0  0
  5  6  1  0  0  0  0
  5  7  1  0  0  0  0
  7  8  2  0  0  0  0
  8  9  1  0  0  0  0
  9 10  1  0  0  0  0
 10 11  1  0  0  0  0
  7 11  1  0  0  0  0
  9 12  1  0  0  0  0
 12 13  2  0  0  0  0
 12 14  1  0  0  0  0
 14 15  1  0  0  0  0
 15 16  1  0  0  0  0
 16 17  1  0  0  0  0
 17 18  1  0  0  0  0
 17 19  1  0  0  0  0
 15 20  1  0  0  0  0
 20 21  2  0  0  0  0
 20 22  1  0  0  0  0
 22 23  1  0  0  0  0
 23 24  1  0  0  0  0
 24 25  1  0  0  0  0
 25 26  1  0  0  0  0
 26 27  2  0  0  0  0
 26 28  1  0  0  0  0
 23 29  1  0  0  0  0
 29 30  2  0  0  0  0
 29 31  1  0  0  0  0
 31 32  1  0  0  0  0
 32 33  1  0  0  0  0
 33 34  1  0  0  0  0
 33 35  1  0  0  0  0
 35 36  1  0  0  0  0
 32 37  1  0  0  0  0
 37 38  2  0  0  0  0
 37 39  1  0  0  0  0
 39 40  1  0  0  0  0
 40 41  1  0  0  0  0
 41 42  1  0  0  0  0
 42 43  1  0  0  0  0
 43 44  1  0  0  0  0
 44 45  1  0  0  0  0
 45 46  1  0  0  0  0
 46 47  2  0  0  0  0
 46 48  1  0  0  0  0
 48 49  1  0  0  0  0
 49 50  1  0  0  0  0
 50 51  2  0  0  0  0
 50 52  1  0  0  0  0
 48 53  1  0  0  0  0
 53 54  1  0  0  0  0
 54 55  2  0  0  0  0
 54 56  1  0  0  0  0
 56 57  1  0  0  0  0
 57 58  1  0  0  0  0
 58 59  2  0  0  0  0
 58 60  1  0  0  0  0
 56 61  1  0  0  0  0
 61 62  1  0  0  0  0
 62 63  2  0  0  0  0
 62 64  1  0  0  0  0
 64 65  1  0  0  0  0
 65 66  1  0  0  0  0
 66 67  4  0  0  0  0
 67 68  4  0  0  0  0
 68 69  4  0  0  0  0
 69 70  4  0  0  0  0
 66 70  4  0  0  0  0
 64 71  1  0  0  0  0
 71 72  1  0  0  0  0
 72 73  2  0  0  0  0
 72 74  1  0  0  0  0
 74 75  1  0  0  0  0
 75 76  1  0  0  0  0
 76 77  4  0  0  0  0
 77 78  4  0  0  0  0
 78 79  4  0  0  0  0
 79 80  4  0  0  0  0
 80 81  4  0  0  0  0
 76 81  4  0  0  0  0
 74 82  1  0  0  0  0
 82 83  1  0  0  0  0
 83 84  2  0  0  0  0
 83 85  1  0  0  0  0
 85 86  1  0  0  0  0
 86 87  1  0  0  0  0
 87 88  2  0  0  0  0
 87 89  1  0  0  0  0
 89 90  1  0  0  0  0
 90 91  1  0  0  0  0
 91 92  1  0  0  0  0
 92 93  1  0  0  0  0
 89 94  1  0  0  0  0
 94 95  1  0  0  0  0
 44 95  1  0  0  0  0
 95 96  2  0  0  0  0
 85 97  1  0  0  0  0
 97 98  1  0  0  0  0
 97 99  1  0  0  0  0
 99100  1  0  0  0  0
M  STY  1   1 DAT
M  SAL   1  1  68
M  SDT   1 MRV_IMPLICIT_H                                        
M  SDD   1     0.0000    0.0000    DR    ALL  0       0  
M  SED   1 IMPL_H1
M  END

> <ChembankId>
1368

> <SMILES>
CCC(C)C(N)C1=NC(CS1)C(=O)NC(CC(C)C)C(=O)NC(CCC(=O)O)C(=O)NC(C(C)CC)C(=O)NCCCCC2NC(=O)C(CC(=O)N)NC(=O)C(CC(=O)O)NC(=O)C(Cc3c[nH]cn3)NC(=O)C(Cc4ccccc4)NC(=O)C(NC(=O)C(CCCN)NC2=O)C(C)CC

> <InChI>
1/C66H103N17O16S/c1-9-35(6)52(69)66-81-48(32-100-66)63(97)76-43(26-34(4)5)58(92)75-42(22-23-50(85)86)57(91)82-53(36(7)10-2)64(98)71-25-16-15-20-40-55(89)73-41(21-17-24-67)56(90)83-54(37(8)11-3)65(99)80-44(27-38-18-13-12-14-19-38)59(93)77-45(28-39-31-70-33-72-39)60(94)79-47(30-51(87)88)62(96)78-46(29-49(68)84)61(95)74-40/h12-14,18-19,31,33-37,40-48,52-54H,9-11,15-17,20-30,32,67,69H2,1-8H3,(H2,68,84)(H,70,72)(H,71,98)(H,73,89)(H,74,95)(H,75,92)(H,76,97)(H,77,93)(H,78,96)(H,79,94)(H,80,99)(H,82,91)(H,83,90)(H,85,86)(H,87,88)

$$$$
1370
  Marvin  11101114192D          

 20 21  0  0  0  0            999 V2000
   -0.7145   -1.2375    0.0000 C   0  0  0  0  0  0  0  0  0  0  0  0
    0.0000   -1.6500    0.0000 C   0  0  0  0  0  0  0  0  0  0  0  0
    0.7145   -1.2375    0.0000 C   0  0  0  0  0  0  0  0  0  0  0  0
    1.4289   -1.6500    0.0000 C   0  0  0  0  0  0  0  0  0  0  0  0
    2.1434   -1.2375    0.0000 C   0  0  0  0  0  0  0  0  0  0  0  0
    2.8579   -1.6500    0.0000 C   0  0  0  0  0  0  0  0  0  0  0  0
    1.4289   -2.4750    0.0000 C   0  0  0  0  0  0  0  0  0  0  0  0
    2.1434   -2.8875    0.0000 C   0  0  0  0  0  0  0  0  0  0  0  0
    2.1434   -3.7125    0.0000 C   0  0  0  0  0  0  0  0  0  0  0  0
    1.4289   -4.1250    0.0000 C   0  0  0  0  0  0  0  0  0  0  0  0
    1.4289   -4.9500    0.0000 O   0  0  0  0  0  0  0  0  0  0  0  0
    0.7145   -3.7125    0.0000 C   0  0  0  0  0  0  0  0  0  0  0  0
    0.7145   -2.8875    0.0000 C   0  0  0  0  0  0  0  0  0  0  0  0
    0.7145   -0.4125    0.0000 C   0  0  0  0  0  0  0  0  0  0  0  0
    0.0000    0.0000    0.0000 C   0  0  0  0  0  0  0  0  0  0  0  0
    0.0000    0.8250    0.0000 C   0  0  0  0  0  0  0  0  0  0  0  0
    0.7145    1.2375    0.0000 C   0  0  0  0  0  0  0  0  0  0  0  0
    0.7145    2.0625    0.0000 O   0  0  0  0  0  0  0  0  0  0  0  0
    1.4289    0.8250    0.0000 C   0  0  0  0  0  0  0  0  0  0  0  0
    1.4289    0.0000    0.0000 C   0  0  0  0  0  0  0  0  0  0  0  0
  1  2  1  0  0  0  0
  2  3  2  0  0  0  0
  3  4  1  0  0  0  0
  4  5  2  0  0  0  0
  5  6  1  0  0  0  0
  4  7  1  0  0  0  0
  7  8  4  0  0  0  0
  8  9  4  0  0  0  0
  9 10  4  0  0  0  0
 10 11  1  0  0  0  0
 10 12  4  0  0  0  0
 12 13  4  0  0  0  0
  7 13  4  0  0  0  0
  3 14  1  0  0  0  0
 14 15  4  0  0  0  0
 15 16  4  0  0  0  0
 16 17  4  0  0  0  0
 17 18  1  0  0  0  0
 17 19  4  0  0  0  0
 19 20  4  0  0  0  0
 14 20  4  0  0  0  0
M  END

> <ChembankId>
1370

> <SMILES>
C/C=C(/C(=C/C)/c1ccc(O)cc1)\c2ccc(O)cc2

> <InChI>
1/C18H18O2/c1-3-17(13-5-9-15(19)10-6-13)18(4-2)14-7-11-16(20)12-8-14/h3-12,19-20H,1-2H3

$$$$
1373
  Marvin  11101114192D          

 30 31  0  0  0  0            999 V2000
   -1.2609   -6.9679    0.0000 C   0  0  0  0  0  0  0  0  0  0  0  0
   -1.1050   -6.1578    0.0000 C   0  0  0  0  0  0  0  0  0  0  0  0
   -0.2948   -6.3137    0.0000 C   0  0  0  0  0  0  0  0  0  0  0  0
   -1.9151   -6.0019    0.0000 C   0  0  0  0  0  0  0  0  0  0  0  0
   -0.9490   -5.3476    0.0000 C   0  0  0  0  0  0  0  0  0  0  0  0
   -0.1695   -5.0776    0.0000 C   0  0  0  0  0  0  0  0  0  0  0  0
    0.1006   -5.8571    0.0000 C   0  0  0  0  0  0  0  0  0  0  0  0
   -0.4395   -4.2980    0.0000 C   0  0  0  0  0  0  0  0  0  0  0  0
    0.6101   -4.8075    0.0000 C   0  0  0  0  0  0  0  0  0  0  0  0
    0.7660   -3.9974    0.0000 C   0  0  0  0  0  0  0  0  0  0  0  0
    1.5455   -3.7274    0.0000 C   0  0  0  0  0  0  0  0  0  0  0  0
    2.1692   -4.2675    0.0000 C   0  0  0  0  0  0  0  0  0  0  0  0
    2.9487   -3.9974    0.0000 O   0  0  0  0  0  0  0  0  0  0  0  0
    3.5724   -4.5375    0.0000 C   0  0  0  0  0  0  0  0  0  0  0  0
    4.3519   -4.2675    0.0000 C   0  0  0  0  0  0  0  0  0  0  0  0
    4.9755   -4.8075    0.0000 O   0  0  0  0  0  0  0  0  0  0  0  0
    5.7551   -4.5375    0.0000 C   0  0  0  0  0  0  0  0  0  0  0  0
    6.3787   -5.0776    0.0000 C   0  0  0  0  0  0  0  0  0  0  0  0
    7.1583   -4.8075    0.0000 N   0  3  0  0  0  0  0  0  0  0  0  0
    7.4283   -5.5871    0.0000 C   0  0  0  0  0  0  0  0  0  0  0  0
    6.8882   -4.0280    0.0000 C   0  0  0  0  0  0  0  0  0  0  0  0
    7.9378   -4.5375    0.0000 C   0  0  0  0  0  0  0  0  0  0  0  0
    8.5615   -5.0776    0.0000 C   0  0  0  0  0  0  0  0  0  0  0  0
    9.3410   -4.8075    0.0000 C   0  0  0  0  0  0  0  0  0  0  0  0
    9.9647   -5.3476    0.0000 C   0  0  0  0  0  0  0  0  0  0  0  0
    9.8088   -6.1578    0.0000 C   0  0  0  0  0  0  0  0  0  0  0  0
    9.0292   -6.4278    0.0000 C   0  0  0  0  0  0  0  0  0  0  0  0
    8.4056   -5.8877    0.0000 C   0  0  0  0  0  0  0  0  0  0  0  0
    2.0133   -5.0776    0.0000 C   0  0  0  0  0  0  0  0  0  0  0  0
    1.2337   -5.3476    0.0000 C   0  0  0  0  0  0  0  0  0  0  0  0
  1  2  1  0  0  0  0
  2  3  1  0  0  0  0
  2  4  1  0  0  0  0
  2  5  1  0  0  0  0
  5  6  1  0  0  0  0
  6  7  1  0  0  0  0
  6  8  1  0  0  0  0
  6  9  1  0  0  0  0
  9 10  4  0  0  0  0
 10 11  4  0  0  0  0
 11 12  4  0  0  0  0
 12 13  1  0  0  0  0
 13 14  1  0  0  0  0
 14 15  1  0  0  0  0
 15 16  1  0  0  0  0
 16 17  1  0  0  0  0
 17 18  1  0  0  0  0
 18 19  1  0  0  0  0
 19 20  1  0  0  0  0
 19 21  1  0  0  0  0
 19 22  1  0  0  0  0
 22 23  1  0  0  0  0
 23 24  4  0  0  0  0
 24 25  4  0  0  0  0
 25 26  4  0  0  0  0
 26 27  4  0  0  0  0
 27 28  4  0  0  0  0
 23 28  4  0  0  0  0
 12 29  4  0  0  0  0
 29 30  4  0  0  0  0
  9 30  4  0  0  0  0
M  CHG  1  19   1
M  END

> <ChembankId>
1373

> <SMILES>
CC(C)(C)CC(C)(C)c1ccc(OCCOCC[N+](C)(C)Cc2ccccc2)cc1

> <InChI>
1/C27H42NO2/c1-26(2,3)22-27(4,5)24-13-15-25(16-14-24)30-20-19-29-18-17-28(6,7)21-23-11-9-8-10-12-23/h8-16H,17-22H2,1-7H3/q+1

$$$$
1380
  Marvin  11101114192D          

 17 18  0  0  1  0            999 V2000
    1.9709    0.2323    0.0000 N   0  0  0  0  0  0  0  0  0  0  0  0
    1.2564   -0.1802    0.0000 C   0  0  0  0  0  0  0  0  0  0  0  0
    0.5420    0.2323    0.0000 O   0  0  0  0  0  0  0  0  0  0  0  0
    1.2564   -1.0052    0.0000 C   0  0  0  0  0  0  0  0  0  0  0  0
    1.9239   -1.4901    0.0000 N   0  0  0  0  0  0  0  0  0  0  0  0
    1.6689   -2.2748    0.0000 C   0  0  0  0  0  0  0  0  0  0  0  0
    0.8439   -2.2748    0.0000 N   0  0  0  0  0  0  0  0  0  0  0  0
    0.5890   -1.4901    0.0000 N   0  0  0  0  0  0  0  0  0  0  0  0
    0.3590   -2.9422    0.0000 C   0  0  2  0  0  0  0  0  0  0  0  0
    0.6139   -3.7268    0.0000 O   0  0  0  0  0  0  0  0  0  0  0  0
   -0.0535   -4.2117    0.0000 C   0  0  2  0  0  0  0  0  0  0  0  0
   -0.0535   -5.0367    0.0000 C   0  0  0  0  0  0  0  0  0  0  0  0
    0.6610   -5.4492    0.0000 O   0  0  0  0  0  0  0  0  0  0  0  0
   -0.7209   -3.7268    0.0000 C   0  0  1  0  0  0  0  0  0  0  0  0
   -1.5056   -3.9818    0.0000 O   0  0  0  0  0  0  0  0  0  0  0  0
   -0.4660   -2.9422    0.0000 C   0  0  1  0  0  0  0  0  0  0  0  0
   -0.9509   -2.2748    0.0000 O   0  0  0  0  0  0  0  0  0  0  0  0
  1  2  1  0  0  0  0
  2  3  2  0  0  0  0
  2  4  1  0  0  0  0
  4  5  4  0  0  0  0
  5  6  4  0  0  0  0
  6  7  4  0  0  0  0
  7  8  4  0  0  0  0
  4  8  4  0  0  0  0
  9  7  1  6  0  0  0
  9 10  1  0  0  0  0
 10 11  1  0  0  0  0
 11 12  1  6  0  0  0
 12 13  1  0  0  0  0
 11 14  1  0  0  0  0
 14 15  1  1  0  0  0
 14 16  1  0  0  0  0
  9 16  1  0  0  0  0
 16 17  1  1  0  0  0
M  END

> <ChembankId>
1380

> <SMILES>
NC(=O)c1ncn(n1)[C@@H]2O[C@H](CO)[C@@H](O)[C@H]2O

> <InChI>
1/C8H12N4O5/c9-6(16)7-10-2-12(11-7)8-5(15)4(14)3(1-13)17-8/h2-5,8,13-15H,1H2,(H2,9,16)

$$$$
3045655
  Marvin  11101114192D          

 26 30  0  0  1  0            999 V2000
    1.7921   -2.4262    0.0000 C   0  0  0  0  0  0  0  0  0  0  0  0
    2.4593   -2.9115    0.0000 C   0  0  0  0  0  0  0  0  0  0  0  0
    2.3726   -3.7319    0.0000 O   0  0  0  0  0  0  0  0  0  0  0  0
    3.2132   -2.5764    0.0000 C   0  0  1  0  0  0  0  0  0  0  0  0
    3.4676   -3.3612    0.0000 O   0  0  0  0  0  0  0  0  0  0  0  0
    2.8011   -1.8617    0.0000 C   0  0  0  0  0  0  0  0  0  0  0  0
    3.3535   -1.2489    0.0000 C   0  0  0  0  0  0  0  0  0  0  0  0
    4.1070   -1.5849    0.0000 C   0  0  0  0  0  0  0  0  0  0  0  0
    4.8609   -1.2498    0.0000 C   0  0  0  0  0  0  0  0  0  0  0  0
    4.9476   -0.4294    0.0000 C   0  0  0  0  0  0  0  0  0  0  0  0
    5.7015   -0.0943    0.0000 C   0  0  0  0  0  0  0  0  0  0  0  0
    5.7882    0.7261    0.0000 Cl  0  0  0  0  0  0  0  0  0  0  0  0
    6.3686   -0.5796    0.0000 C   0  0  0  0  0  0  0  0  0  0  0  0
    7.1225   -0.2445    0.0000 C   0  0  0  0  0  0  0  0  0  0  0  0
    7.7896   -0.7298    0.0000 C   0  0  0  0  0  0  0  0  0  0  0  0
    8.5435   -0.3947    0.0000 O   0  0  0  0  0  0  0  0  0  0  0  0
    7.7029   -1.5503    0.0000 C   0  0  2  0  0  0  0  0  0  0  0  0
    7.6162   -2.3707    0.0000 C   0  0  0  0  0  0  0  0  0  0  0  0
    6.9490   -1.8854    0.0000 C   0  0  0  0  0  0  0  0  0  0  0  0
    6.2819   -1.4000    0.0000 C   0  0  1  0  0  0  0  0  0  0  0  0
    6.1951   -2.2205    0.0000 C   0  0  0  0  0  0  0  0  0  0  0  0
    5.5280   -1.7351    0.0000 C   0  0  0  0  0  0  0  0  0  0  0  0
    5.4413   -2.5556    0.0000 C   0  0  0  0  0  0  0  0  0  0  0  0
    4.6874   -2.8907    0.0000 C   0  0  0  0  0  0  0  0  0  0  0  0
    4.0202   -2.4053    0.0000 C   0  0  2  0  0  0  0  0  0  0  0  0
    3.8482   -3.2122    0.0000 C   0  0  0  0  0  0  0  0  0  0  0  0
  1  2  1  0  0  0  0
  2  3  2  0  0  0  0
  4  2  1  1  0  0  0
  4  5  1  6  0  0  0
  4  6  1  0  0  0  0
  6  7  1  0  0  0  0
  7  8  1  0  0  0  0
  8  9  1  0  0  0  0
  9 10  1  0  0  0  0
 10 11  2  0  0  0  0
 11 12  1  0  0  0  0
 11 13  1  0  0  0  0
 13 14  2  0  0  0  0
 14 15  1  0  0  0  0
 15 16  2  0  0  0  0
 15 17  1  0  0  0  0
 17 18  1  6  0  0  0
 18 19  1  0  0  0  0
 17 19  1  0  0  0  0
 19 20  1  0  0  0  0
 13 20  1  0  0  0  0
 20 21  1  1  0  0  0
 20 22  1  0  0  0  0
  9 22  1  0  0  0  0
 22 23  1  0  0  0  0
 23 24  1  0  0  0  0
 24 25  1  0  0  0  0
  8 25  1  0  0  0  0
  4 25  1  0  0  0  0
 25 26  1  1  0  0  0
M  END

> <ChembankId>
3045655

> <SMILES>
CC(=O)[C@@]1(O)CCC2C3C=C(Cl)C4=CC(=O)[C@@H]5CC5[C@]4(C)C3CC[C@@]21C

> <InChI>
1/C22H27ClO3/c1-11(24)22(26)7-5-14-12-9-18(23)17-10-19(25)13-8-16(13)21(17,3)15(12)4-6-20(14,22)2/h9-10,12-16,26H,4-8H2,1-3H3

$$$$
1386
  Marvin  11101114192D          

 18 20  0  0  0  0            999 V2000
    0.0000   -1.6500    0.0000 C   0  0  0  0  0  0  0  0  0  0  0  0
    0.7145   -1.2375    0.0000 N   0  0  0  0  0  0  0  0  0  0  0  0
    0.7145   -0.4125    0.0000 C   0  0  0  0  0  0  0  0  0  0  0  0
    1.4289    0.0000    0.0000 C   0  0  0  0  0  0  0  0  0  0  0  0
    1.4289    0.8250    0.0000 C   0  0  0  0  0  0  0  0  0  0  0  0
    0.7145    1.2375    0.0000 C   0  0  0  0  0  0  0  0  0  0  0  0
    0.7145    2.0625    0.0000 C   0  0  0  0  0  0  0  0  0  0  0  0
    1.4289    2.4750    0.0000 C   0  0  0  0  0  0  0  0  0  0  0  0
    2.1434    2.0625    0.0000 C   0  0  0  0  0  0  0  0  0  0  0  0
    2.1434    1.2375    0.0000 C   0  0  0  0  0  0  0  0  0  0  0  0
    2.1434   -0.4125    0.0000 C   0  0  0  0  0  0  0  0  0  0  0  0
    2.8579    0.0000    0.0000 C   0  0  0  0  0  0  0  0  0  0  0  0
    3.5724   -0.4125    0.0000 C   0  0  0  0  0  0  0  0  0  0  0  0
    3.5724   -1.2375    0.0000 C   0  0  0  0  0  0  0  0  0  0  0  0
    2.8579   -1.6500    0.0000 C   0  0  0  0  0  0  0  0  0  0  0  0
    2.8579   -2.4750    0.0000 N   0  0  0  0  0  0  0  0  0  0  0  0
    2.1434   -1.2375    0.0000 C   0  0  0  0  0  0  0  0  0  0  0  0
    1.4289   -1.6500    0.0000 C   0  0  0  0  0  0  0  0  0  0  0  0
  1  2  1  0  0  0  0
  2  3  1  0  0  0  0
  3  4  1  0  0  0  0
  4  5  1  0  0  0  0
  5  6  4  0  0  0  0
  6  7  4  0  0  0  0
  7  8  4  0  0  0  0
  8  9  4  0  0  0  0
  9 10  4  0  0  0  0
  5 10  4  0  0  0  0
  4 11  1  0  0  0  0
 11 12  4  0  0  0  0
 12 13  4  0  0  0  0
 13 14  4  0  0  0  0
 14 15  4  0  0  0  0
 15 16  1  0  0  0  0
 15 17  4  0  0  0  0
 11 17  4  0  0  0  0
 17 18  1  0  0  0  0
  2 18  1  0  0  0  0
M  END

> <ChembankId>
1386

> <SMILES>
CN1CC(c2ccccc2)c3cccc(N)c3C1

> <InChI>
1/C16H18N2/c1-18-10-14(12-6-3-2-4-7-12)13-8-5-9-16(17)15(13)11-18/h2-9,14H,10-11,17H2,1H3

$$$$
1387
  Marvin  11101114192D          

 26 28  0  0  0  0            999 V2000
    2.1434   -2.8875    0.0000 O   0  0  0  0  0  0  0  0  0  0  0  0
    1.4289   -2.4750    0.0000 C   0  0  0  0  0  0  0  0  0  0  0  0
    0.7145   -2.8875    0.0000 C   0  0  0  0  0  0  0  0  0  0  0  0
    0.7145   -3.7125    0.0000 C   0  0  0  0  0  0  0  0  0  0  0  0
    0.0000   -4.1250    0.0000 C   0  0  0  0  0  0  0  0  0  0  0  0
   -0.7145   -3.7125    0.0000 C   0  0  0  0  0  0  0  0  0  0  0  0
   -0.7145   -2.8875    0.0000 C   0  0  0  0  0  0  0  0  0  0  0  0
    0.0000   -2.4750    0.0000 N   0  0  0  0  0  0  0  0  0  0  0  0
    1.4289   -1.6500    0.0000 C   0  0  0  0  0  0  0  0  0  0  0  0
    0.7145   -1.2375    0.0000 C   0  0  0  0  0  0  0  0  0  0  0  0
    0.7145   -0.4125    0.0000 C   0  0  0  0  0  0  0  0  0  0  0  0
    1.4289    0.0000    0.0000 N   0  0  0  0  0  0  0  0  0  0  0  0
    2.1434   -0.4125    0.0000 C   0  0  0  0  0  0  0  0  0  0  0  0
    2.8579    0.0000    0.0000 C   0  0  0  0  0  0  0  0  0  0  0  0
    3.5724   -0.4125    0.0000 C   0  0  0  0  0  0  0  0  0  0  0  0
    3.5724   -1.2375    0.0000 C   0  0  0  0  0  0  0  0  0  0  0  0
    2.8579   -1.6500    0.0000 C   0  0  0  0  0  0  0  0  0  0  0  0
    2.1434   -1.2375    0.0000 C   0  0  0  0  0  0  0  0  0  0  0  0
    2.8579    0.8250    0.0000 C   0  0  0  0  0  0  0  0  0  0  0  0
    2.8579    1.6500    0.0000 F   0  0  0  0  0  0  0  0  0  0  0  0
    3.6829    0.8250    0.0000 F   0  0  0  0  0  0  0  0  0  0  0  0
    2.0329    0.8250    0.0000 F   0  0  0  0  0  0  0  0  0  0  0  0
    0.0000    0.0000    0.0000 C   0  0  0  0  0  0  0  0  0  0  0  0
   -0.7145    0.4125    0.0000 F   0  0  0  0  0  0  0  0  0  0  0  0
    0.4125    0.7145    0.0000 F   0  0  0  0  0  0  0  0  0  0  0  0
   -0.4125   -0.7145    0.0000 F   0  0  0  0  0  0  0  0  0  0  0  0
  1  2  1  0  0  0  0
  2  3  1  0  0  0  0
  3  4  1  0  0  0  0
  4  5  1  0  0  0  0
  5  6  1  0  0  0  0
  6  7  1  0  0  0  0
  7  8  1  0  0  0  0
  3  8  1  0  0  0  0
  2  9  1  0  0  0  0
  9 10  4  0  0  0  0
 10 11  4  0  0  0  0
 11 12  4  0  0  0  0
 12 13  4  0  0  0  0
 13 14  4  0  0  0  0
 14 15  4  0  0  0  0
 15 16  4  0  0  0  0
 16 17  4  0  0  0  0
 17 18  4  0  0  0  0
  9 18  4  0  0  0  0
 13 18  4  0  0  0  0
 14 19  1  0  0  0  0
 19 20  1  0  0  0  0
 19 21  1  0  0  0  0
 19 22  1  0  0  0  0
 11 23  1  0  0  0  0
 23 24  1  0  0  0  0
 23 25  1  0  0  0  0
 23 26  1  0  0  0  0
M  END

> <ChembankId>
1387

> <SMILES>
OC(C1CCCCN1)c2cc(nc3c(cccc23)C(F)(F)F)C(F)(F)F

> <InChI>
1/C17H16F6N2O/c18-16(19,20)11-5-3-4-9-10(15(26)12-6-1-2-7-24-12)8-13(17(21,22)23)25-14(9)11/h3-5,8,12,15,24,26H,1-2,6-7H2

$$$$
1388
  Marvin  11101114192D          

 18 19  0  0  0  0            999 V2000
   -0.7145   -0.4125    0.0000 C   0  0  0  0  0  0  0  0  0  0  0  0
   -0.7145   -1.2375    0.0000 C   0  0  0  0  0  0  0  0  0  0  0  0
   -1.4289   -1.6500    0.0000 C   0  0  0  0  0  0  0  0  0  0  0  0
   -1.4289   -2.4750    0.0000 C   0  0  0  0  0  0  0  0  0  0  0  0
   -2.1434   -2.8875    0.0000 N   0  0  0  0  0  0  0  0  0  0  0  0
   -2.1434   -3.7125    0.0000 C   0  0  0  0  0  0  0  0  0  0  0  0
   -1.4289   -4.1250    0.0000 C   0  0  0  0  0  0  0  0  0  0  0  0
   -1.4289   -4.9500    0.0000 C   0  0  0  0  0  0  0  0  0  0  0  0
   -2.1434   -5.3625    0.0000 C   0  0  0  0  0  0  0  0  0  0  0  0
   -2.8579   -4.9500    0.0000 C   0  0  0  0  0  0  0  0  0  0  0  0
   -2.8579   -4.1250    0.0000 C   0  0  0  0  0  0  0  0  0  0  0  0
   -3.5724   -3.7125    0.0000 C   0  0  0  0  0  0  0  0  0  0  0  0
   -3.5724   -2.8875    0.0000 O   0  0  0  0  0  0  0  0  0  0  0  0
   -4.2868   -4.1250    0.0000 O   0  0  0  0  0  0  0  0  0  0  0  0
   -0.7145   -2.8875    0.0000 C   0  0  0  0  0  0  0  0  0  0  0  0
    0.0000   -2.4750    0.0000 C   0  0  0  0  0  0  0  0  0  0  0  0
    0.0000   -1.6500    0.0000 C   0  0  0  0  0  0  0  0  0  0  0  0
    0.7145   -1.2375    0.0000 Cl  0  0  0  0  0  0  0  0  0  0  0  0
  1  2  1  0  0  0  0
  2  3  4  0  0  0  0
  3  4  4  0  0  0  0
  4  5  1  0  0  0  0
  5  6  1  0  0  0  0
  6  7  4  0  0  0  0
  7  8  4  0  0  0  0
  8  9  4  0  0  0  0
  9 10  4  0  0  0  0
 10 11  4  0  0  0  0
  6 11  4  0  0  0  0
 11 12  1  0  0  0  0
 12 13  2  0  0  0  0
 12 14  1  0  0  0  0
  4 15  4  0  0  0  0
 15 16  4  0  0  0  0
 16 17  4  0  0  0  0
  2 17  4  0  0  0  0
 17 18  1  0  0  0  0
M  END

> <ChembankId>
1388

> <SMILES>
Cc1cc(Nc2ccccc2C(=O)O)ccc1Cl

> <InChI>
1/C14H12ClNO2/c1-9-8-10(6-7-12(9)15)16-13-5-3-2-4-11(13)14(17)18/h2-8,16H,1H3,(H,17,18)

$$$$
1390
  Marvin  11101114192D          

 17 17  0  0  0  0            999 V2000
   -2.8579   -2.4750    0.0000 C   0  0  0  0  0  0  0  0  0  0  0  0
   -2.1434   -2.0625    0.0000 C   0  0  0  0  0  0  0  0  0  0  0  0
   -1.7309   -2.7770    0.0000 C   0  0  0  0  0  0  0  0  0  0  0  0
   -2.5559   -1.3480    0.0000 C   0  0  0  0  0  0  0  0  0  0  0  0
   -1.4289   -1.6500    0.0000 N   0  0  0  0  0  0  0  0  0  0  0  0
   -0.7145   -2.0625    0.0000 C   0  0  0  0  0  0  0  0  0  0  0  0
    0.0000   -1.6500    0.0000 C   0  0  0  0  0  0  0  0  0  0  0  0
    0.0000   -0.8250    0.0000 O   0  0  0  0  0  0  0  0  0  0  0  0
    0.7145   -2.0625    0.0000 C   0  0  0  0  0  0  0  0  0  0  0  0
    1.4289   -1.6500    0.0000 C   0  0  0  0  0  0  0  0  0  0  0  0
    2.1434   -2.0625    0.0000 C   0  0  0  0  0  0  0  0  0  0  0  0
    2.8579   -1.6500    0.0000 Cl  0  0  0  0  0  0  0  0  0  0  0  0
    2.1434   -2.8875    0.0000 C   0  0  0  0  0  0  0  0  0  0  0  0
    2.8579   -3.3000    0.0000 N   0  0  0  0  0  0  0  0  0  0  0  0
    1.4289   -3.3000    0.0000 C   0  0  0  0  0  0  0  0  0  0  0  0
    1.4289   -4.1250    0.0000 Cl  0  0  0  0  0  0  0  0  0  0  0  0
    0.7145   -2.8875    0.0000 C   0  0  0  0  0  0  0  0  0  0  0  0
  1  2  1  0  0  0  0
  2  3  1  0  0  0  0
  2  4  1  0  0  0  0
  2  5  1  0  0  0  0
  5  6  1  0  0  0  0
  6  7  1  0  0  0  0
  7  8  1  0  0  0  0
  7  9  1  0  0  0  0
  9 10  4  0  0  0  0
 10 11  4  0  0  0  0
 11 12  1  0  0  0  0
 11 13  4  0  0  0  0
 13 14  1  0  0  0  0
 13 15  4  0  0  0  0
 15 16  1  0  0  0  0
 15 17  4  0  0  0  0
  9 17  4  0  0  0  0
M  END

> <ChembankId>
1390

> <SMILES>
CC(C)(C)NCC(O)c1cc(Cl)c(N)c(Cl)c1

> <InChI>
1/C12H18Cl2N2O/c1-12(2,3)16-6-10(17)7-4-8(13)11(15)9(14)5-7/h4-5,10,16-17H,6,15H2,1-3H3

$$$$
1391
  Marvin  11101114192D          

 11 11  0  0  0  0            999 V2000
   -0.0000    3.3000    0.0000 C   0  0  0  0  0  0  0  0  0  0  0  0
   -0.0000    2.4750    0.0000 C   0  0  0  0  0  0  0  0  0  0  0  0
   -0.7145    2.0625    0.0000 N   0  0  0  0  0  0  0  0  0  0  0  0
    0.7145    2.0625    0.0000 C   0  0  0  0  0  0  0  0  0  0  0  0
    1.4289    2.4750    0.0000 O   0  0  0  0  0  0  0  0  0  0  0  0
    0.7145    1.2375    0.0000 C   0  0  0  0  0  0  0  0  0  0  0  0
    1.4289    0.8250    0.0000 C   0  0  0  0  0  0  0  0  0  0  0  0
    1.4289    0.0000    0.0000 C   0  0  0  0  0  0  0  0  0  0  0  0
    0.7145   -0.4125    0.0000 C   0  0  0  0  0  0  0  0  0  0  0  0
    0.0000   -0.0000    0.0000 C   0  0  0  0  0  0  0  0  0  0  0  0
   -0.0000    0.8250    0.0000 C   0  0  0  0  0  0  0  0  0  0  0  0
  1  2  1  0  0  0  0
  2  3  1  0  0  0  0
  2  4  1  0  0  0  0
  4  5  1  0  0  0  0
  4  6  1  0  0  0  0
  6  7  4  0  0  0  0
  7  8  4  0  0  0  0
  8  9  4  0  0  0  0
  9 10  4  0  0  0  0
 10 11  4  0  0  0  0
  6 11  4  0  0  0  0
M  END

> <ChembankId>
1391

> <SMILES>
CC(N)C(O)c1ccccc1

> <InChI>
1/C9H13NO/c1-7(10)9(11)8-5-3-2-4-6-8/h2-7,9,11H,10H2,1H3/t7-,9-/m0/s1

$$$$
1393
  Marvin  11101114192D          

 22 24  0  0  0  0            999 V2000
   -0.5463   -2.6842    0.0000 C   0  0  0  0  0  0  0  0  0  0  0  0
    0.1681   -3.0967    0.0000 N   0  0  0  0  0  0  0  0  0  0  0  0
    0.1681   -3.9217    0.0000 C   0  0  0  0  0  0  0  0  0  0  0  0
    0.8826   -2.6842    0.0000 C   0  0  0  0  0  0  0  0  0  0  0  0
    1.5971   -3.0967    0.0000 C   0  0  0  0  0  0  0  0  0  0  0  0
    2.3116   -2.6842    0.0000 C   0  0  0  0  0  0  0  0  0  0  0  0
    3.0260   -3.0967    0.0000 N   0  0  0  0  0  0  0  0  0  0  0  0
    3.7077   -2.6319    0.0000 C   0  0  0  0  0  0  0  0  0  0  0  0
    3.5241   -1.8276    0.0000 C   0  0  0  0  0  0  0  0  0  0  0  0
    4.1289   -1.2665    0.0000 C   0  0  0  0  0  0  0  0  0  0  0  0
    4.9172   -1.5096    0.0000 C   0  0  0  0  0  0  0  0  0  0  0  0
    5.1008   -2.3139    0.0000 C   0  0  0  0  0  0  0  0  0  0  0  0
    4.4960   -2.8751    0.0000 C   0  0  0  0  0  0  0  0  0  0  0  0
    4.7974   -3.6431    0.0000 C   0  0  0  0  0  0  0  0  0  0  0  0
    4.3849   -4.3575    0.0000 C   0  0  0  0  0  0  0  0  0  0  0  0
    3.5691   -4.4805    0.0000 C   0  0  0  0  0  0  0  0  0  0  0  0
    3.3856   -5.2848    0.0000 C   0  0  0  0  0  0  0  0  0  0  0  0
    2.5972   -5.5280    0.0000 C   0  0  0  0  0  0  0  0  0  0  0  0
    1.9925   -4.9668    0.0000 C   0  0  0  0  0  0  0  0  0  0  0  0
    1.2041   -5.2100    0.0000 Cl  0  0  0  0  0  0  0  0  0  0  0  0
    2.1760   -4.1625    0.0000 C   0  0  0  0  0  0  0  0  0  0  0  0
    2.9644   -3.9193    0.0000 C   0  0  0  0  0  0  0  0  0  0  0  0
  1  2  1  0  0  0  0
  2  3  1  0  0  0  0
  2  4  1  0  0  0  0
  4  5  1  0  0  0  0
  5  6  1  0  0  0  0
  6  7  1  0  0  0  0
  7  8  1  0  0  0  0
  8  9  4  0  0  0  0
  9 10  4  0  0  0  0
 10 11  4  0  0  0  0
 11 12  4  0  0  0  0
 12 13  4  0  0  0  0
  8 13  4  0  0  0  0
 13 14  1  0  0  0  0
 14 15  1  0  0  0  0
 15 16  1  0  0  0  0
 16 17  4  0  0  0  0
 17 18  4  0  0  0  0
 18 19  4  0  0  0  0
 19 20  1  0  0  0  0
 19 21  4  0  0  0  0
 21 22  4  0  0  0  0
  7 22  1  0  0  0  0
 16 22  4  0  0  0  0
M  END

> <ChembankId>
1393

> <SMILES>
CN(C)CCCN1c2ccccc2CCc3ccc(Cl)cc13

> <InChI>
1/C19H23ClN2/c1-21(2)12-5-13-22-18-7-4-3-6-15(18)8-9-16-10-11-17(20)14-19(16)22/h3-4,6-7,10-11,14H,5,8-9,12-13H2,1-2H3

$$$$
1395
  Marvin  11101114192D          

 21 22  0  0  0  0            999 V2000
    2.1434   -1.4586    0.0000 C   0  0  0  0  0  0  0  0  0  0  0  0
    2.5559   -2.1730    0.0000 C   0  0  0  0  0  0  0  0  0  0  0  0
    2.1434   -2.8875    0.0000 C   0  0  0  0  0  0  0  0  0  0  0  0
    1.3184   -2.8875    0.0000 O   0  0  0  0  0  0  0  0  0  0  0  0
    0.9059   -3.6020    0.0000 C   0  0  0  0  0  0  0  0  0  0  0  0
    1.3184   -4.3164    0.0000 C   0  0  0  0  0  0  0  0  0  0  0  0
    0.9059   -5.0309    0.0000 C   0  0  0  0  0  0  0  0  0  0  0  0
    0.0809   -5.0309    0.0000 C   0  0  0  0  0  0  0  0  0  0  0  0
   -0.3316   -4.3164    0.0000 C   0  0  0  0  0  0  0  0  0  0  0  0
    0.0809   -3.6020    0.0000 C   0  0  0  0  0  0  0  0  0  0  0  0
    3.3809   -2.1730    0.0000 N   0  0  0  0  0  0  0  0  0  0  0  0
    3.7934   -2.8875    0.0000 C   0  0  0  0  0  0  0  0  0  0  0  0
    4.6184   -2.8875    0.0000 C   0  0  0  0  0  0  0  0  0  0  0  0
    5.0309   -3.6020    0.0000 Cl  0  0  0  0  0  0  0  0  0  0  0  0
    3.7934   -1.4586    0.0000 C   0  0  0  0  0  0  0  0  0  0  0  0
    4.6184   -1.4586    0.0000 C   0  0  0  0  0  0  0  0  0  0  0  0
    5.0309   -0.7441    0.0000 C   0  0  0  0  0  0  0  0  0  0  0  0
    5.8559   -0.7441    0.0000 C   0  0  0  0  0  0  0  0  0  0  0  0
    6.2684   -1.4586    0.0000 C   0  0  0  0  0  0  0  0  0  0  0  0
    5.8559   -2.1730    0.0000 C   0  0  0  0  0  0  0  0  0  0  0  0
    5.0309   -2.1730    0.0000 C   0  0  0  0  0  0  0  0  0  0  0  0
  1  2  1  0  0  0  0
  2  3  1  0  0  0  0
  3  4  1  0  0  0  0
  4  5  1  0  0  0  0
  5  6  4  0  0  0  0
  6  7  4  0  0  0  0
  7  8  4  0  0  0  0
  8  9  4  0  0  0  0
  9 10  4  0  0  0  0
  5 10  4  0  0  0  0
  2 11  1  0  0  0  0
 11 12  1  0  0  0  0
 12 13  1  0  0  0  0
 13 14  1  0  0  0  0
 11 15  1  0  0  0  0
 15 16  1  0  0  0  0
 16 17  4  0  0  0  0
 17 18  4  0  0  0  0
 18 19  4  0  0  0  0
 19 20  4  0  0  0  0
 20 21  4  0  0  0  0
 16 21  4  0  0  0  0
M  END

> <ChembankId>
1395

> <SMILES>
CC(COc1ccccc1)N(CCCl)Cc2ccccc2

> <InChI>
1/C18H22ClNO/c1-16(15-21-18-10-6-3-7-11-18)20(13-12-19)14-17-8-4-2-5-9-17/h2-11,16H,12-15H2,1H3

$$$$
1397
  Marvin  11101114192D          

 27 29  0  0  0  0            999 V2000
    6.0767    2.4285    0.0000 C   0  0  0  0  0  0  0  0  0  0  0  0
    5.7030    1.6930    0.0000 C   0  0  0  0  0  0  0  0  0  0  0  0
    6.1532    1.0016    0.0000 C   0  0  0  0  0  0  0  0  0  0  0  0
    4.8792    1.6488    0.0000 N   0  3  0  0  0  0  0  0  0  0  0  0
    4.8350    2.4726    0.0000 C   0  0  0  0  0  0  0  0  0  0  0  0
    4.0554    1.6047    0.0000 C   0  0  0  0  0  0  0  0  0  0  0  0
    3.6817    0.8691    0.0000 C   0  0  0  0  0  0  0  0  0  0  0  0
    2.8579    0.8250    0.0000 O   0  0  0  0  0  0  0  0  0  0  0  0
    2.4842    0.0895    0.0000 C   0  0  0  0  0  0  0  0  0  0  0  0
    2.9344   -0.6019    0.0000 O   0  0  0  0  0  0  0  0  0  0  0  0
    1.6604    0.0453    0.0000 C   0  0  0  0  0  0  0  0  0  0  0  0
    1.2867   -0.6902    0.0000 C   0  0  0  0  0  0  0  0  0  0  0  0
    1.7369   -1.3816    0.0000 C   0  0  0  0  0  0  0  0  0  0  0  0
    1.3632   -2.1171    0.0000 C   0  0  0  0  0  0  0  0  0  0  0  0
    0.5394   -2.1612    0.0000 C   0  0  0  0  0  0  0  0  0  0  0  0
    0.0892   -1.4699    0.0000 C   0  0  0  0  0  0  0  0  0  0  0  0
    0.4629   -0.7343    0.0000 C   0  0  0  0  0  0  0  0  0  0  0  0
    0.0128   -0.0430    0.0000 O   0  0  0  0  0  0  0  0  0  0  0  0
    0.3864    0.6926    0.0000 C   0  0  0  0  0  0  0  0  0  0  0  0
   -0.0637    1.3839    0.0000 C   0  0  0  0  0  0  0  0  0  0  0  0
    0.3100    2.1194    0.0000 C   0  0  0  0  0  0  0  0  0  0  0  0
    1.1338    2.1636    0.0000 C   0  0  0  0  0  0  0  0  0  0  0  0
    1.5839    1.4722    0.0000 C   0  0  0  0  0  0  0  0  0  0  0  0
    1.2102    0.7367    0.0000 C   0  0  0  0  0  0  0  0  0  0  0  0
    4.9233    0.8250    0.0000 C   0  0  0  0  0  0  0  0  0  0  0  0
    5.6589    0.4513    0.0000 C   0  0  0  0  0  0  0  0  0  0  0  0
    4.2320    0.3749    0.0000 C   0  0  0  0  0  0  0  0  0  0  0  0
  1  2  1  0  0  0  0
  2  3  1  0  0  0  0
  2  4  1  0  0  0  0
  4  5  1  0  0  0  0
  4  6  1  0  0  0  0
  6  7  1  0  0  0  0
  7  8  1  0  0  0  0
  8  9  1  0  0  0  0
  9 10  2  0  0  0  0
  9 11  1  0  0  0  0
 11 12  1  0  0  0  0
 12 13  4  0  0  0  0
 13 14  4  0  0  0  0
 14 15  4  0  0  0  0
 15 16  4  0  0  0  0
 16 17  4  0  0  0  0
 12 17  4  0  0  0  0
 17 18  1  0  0  0  0
 18 19  1  0  0  0  0
 19 20  4  0  0  0  0
 20 21  4  0  0  0  0
 21 22  4  0  0  0  0
 22 23  4  0  0  0  0
 23 24  4  0  0  0  0
 11 24  1  0  0  0  0
 19 24  4  0  0  0  0
  4 25  1  0  0  0  0
 25 26  1  0  0  0  0
 25 27  1  0  0  0  0
M  CHG  1   4   1
M  END

> <ChembankId>
1397

> <SMILES>
CC(C)[N+](C)(CCOC(=O)C1c2ccccc2Oc3ccccc13)C(C)C

> <InChI>
1/C23H30NO3/c1-16(2)24(5,17(3)4)14-15-26-23(25)22-18-10-6-8-12-20(18)27-21-13-9-7-11-19(21)22/h6-13,16-17,22H,14-15H2,1-5H3/q+1

$$$$
1400
  Marvin  11101114192D          

 29 31  0  0  1  0            999 V2000
   -2.3441   -2.8361    0.0000 C   0  0  0  0  0  0  0  0  0  0  0  0
   -1.5371   -2.6646    0.0000 C   0  0  0  0  0  0  0  0  0  0  0  0
   -1.2822   -1.8800    0.0000 C   0  0  0  0  0  0  0  0  0  0  0  0
   -0.9851   -3.2777    0.0000 C   0  0  1  0  0  0  0  0  0  0  0  0
   -1.2400   -4.0623    0.0000 C   0  0  0  0  0  0  0  0  0  0  0  0
   -0.1781   -3.1062    0.0000 C   0  0  0  0  0  0  0  0  0  0  0  0
    0.0768   -2.3215    0.0000 C   0  0  0  0  0  0  0  0  0  0  0  0
    0.8838   -2.1500    0.0000 C   0  0  1  0  0  0  0  0  0  0  0  0
    1.4358   -2.7631    0.0000 C   0  0  0  0  0  0  0  0  0  0  0  0
    1.1387   -1.3654    0.0000 C   0  0  0  0  0  0  0  0  0  0  0  0
    0.6538   -0.6979    0.0000 C   0  0  0  0  0  0  0  0  0  0  0  0
    1.1387   -0.0305    0.0000 C   0  0  0  0  0  0  0  0  0  0  0  0
    1.9233   -0.2854    0.0000 C   0  0  1  0  0  0  0  0  0  0  0  0
    2.6378    0.1271    0.0000 C   0  0  0  0  0  0  0  0  0  0  0  0
    2.6378    0.9521    0.0000 C   0  0  0  0  0  0  0  0  0  0  0  0
    3.3523    1.3646    0.0000 C   0  0  0  0  0  0  0  0  0  0  0  0
    3.3523    2.1896    0.0000 C   0  0  0  0  0  0  0  0  0  0  0  0
    4.0668    2.6021    0.0000 C   0  0  0  0  0  0  0  0  0  0  0  0
    4.0668    3.4271    0.0000 C   0  0  1  0  0  0  0  0  0  0  0  0
    4.7812    3.8396    0.0000 O   0  0  0  0  0  0  0  0  0  0  0  0
    3.3523    3.8396    0.0000 C   0  0  0  0  0  0  0  0  0  0  0  0
    2.6378    3.4271    0.0000 C   0  0  0  0  0  0  0  0  0  0  0  0
    2.6378    2.6021    0.0000 C   0  0  0  0  0  0  0  0  0  0  0  0
    1.9233    2.1896    0.0000 C   0  0  0  0  0  0  0  0  0  0  0  0
    3.3523   -0.2854    0.0000 C   0  0  0  0  0  0  0  0  0  0  0  0
    3.3523   -1.1104    0.0000 C   0  0  0  0  0  0  0  0  0  0  0  0
    2.6378   -1.5229    0.0000 C   0  0  0  0  0  0  0  0  0  0  0  0
    1.9233   -1.1104    0.0000 C   0  0  2  0  0  0  0  0  0  0  0  0
    1.8371   -1.9309    0.0000 C   0  0  0  0  0  0  0  0  0  0  0  0
  1  2  1  0  0  0  0
  2  3  1  0  0  0  0
  2  4  1  0  0  0  0
  4  5  1  6  0  0  0
  4  6  1  0  0  0  0
  6  7  2  0  0  0  0
  7  8  1  0  0  0  0
  8  9  1  6  0  0  0
  8 10  1  0  0  0  0
 10 11  1  0  0  0  0
 11 12  1  0  0  0  0
 13 12  1  1  0  0  0
 13 14  1  0  0  0  0
 14 15  2  0  0  0  0
 15 16  1  0  0  0  0
 16 17  2  0  0  0  0
 17 18  1  0  0  0  0
 18 19  1  0  0  0  0
 19 20  1  6  0  0  0
 19 21  1  0  0  0  0
 21 22  1  0  0  0  0
 22 23  1  0  0  0  0
 17 23  1  0  0  0  0
 23 24  2  0  0  0  0
 14 25  1  0  0  0  0
 25 26  1  0  0  0  0
 26 27  1  0  0  0  0
 27 28  1  0  0  0  0
 10 28  1  0  0  0  0
 13 28  1  0  0  0  0
 28 29  1  1  0  0  0
M  END

> <ChembankId>
1400

> <SMILES>
CC(C)[C@@H](C)/C=C/[C@@H](C)C1CC[C@H]2\C(=C\C=C/3\C[C@@H](O)CCC3=C)\CCC[C@]12C

> <InChI>
1/C28H44O/c1-19(2)20(3)9-10-22(5)26-15-16-27-23(8-7-17-28(26,27)6)12-13-24-18-25(29)14-11-21(24)4/h9-10,12-13,19-20,22,25-27,29H,4,7-8,11,14-18H2,1-3,5-6H3

$$$$
2551
  Marvin  11101114192D          

 19 20  0  0  0  0            999 V2000
   -2.1434    1.2375    0.0000 C   0  0  0  0  0  0  0  0  0  0  0  0
   -1.4289    0.8250    0.0000 O   0  0  0  0  0  0  0  0  0  0  0  0
   -1.4289   -0.0000    0.0000 C   0  0  0  0  0  0  0  0  0  0  0  0
   -0.7145   -0.4125    0.0000 C   0  0  0  0  0  0  0  0  0  0  0  0
   -0.7145   -1.2375    0.0000 C   0  0  0  0  0  0  0  0  0  0  0  0
    0.0000   -1.6500    0.0000 N   0  0  0  0  0  0  0  0  0  0  0  0
    0.7145   -1.2375    0.0000 C   0  0  0  0  0  0  0  0  0  0  0  0
    0.7145   -0.4125    0.0000 C   0  0  0  0  0  0  0  0  0  0  0  0
    1.4289   -1.6500    0.0000 C   0  0  0  0  0  0  0  0  0  0  0  0
    2.1434   -1.2375    0.0000 C   0  0  0  0  0  0  0  0  0  0  0  0
    2.8579   -1.6500    0.0000 C   0  0  0  0  0  0  0  0  0  0  0  0
    3.5724   -1.2375    0.0000 N   0  0  0  0  0  0  0  0  0  0  0  0
   -1.4289   -1.6500    0.0000 C   0  0  0  0  0  0  0  0  0  0  0  0
   -1.4289   -2.4750    0.0000 N   0  0  0  0  0  0  0  0  0  0  0  0
   -2.1434   -2.8875    0.0000 C   0  0  0  0  0  0  0  0  0  0  0  0
   -2.8579   -2.4750    0.0000 C   0  0  0  0  0  0  0  0  0  0  0  0
   -2.8579   -1.6500    0.0000 C   0  0  0  0  0  0  0  0  0  0  0  0
   -2.1434   -1.2375    0.0000 C   0  0  0  0  0  0  0  0  0  0  0  0
   -2.1434   -0.4125    0.0000 C   0  0  0  0  0  0  0  0  0  0  0  0
  1  2  1  0  0  0  0
  2  3  1  0  0  0  0
  3  4  4  0  0  0  0
  4  5  4  0  0  0  0
  5  6  1  0  0  0  0
  6  7  1  0  0  0  0
  7  8  1  0  0  0  0
  7  9  1  0  0  0  0
  9 10  1  0  0  0  0
 10 11  1  0  0  0  0
 11 12  1  0  0  0  0
  5 13  4  0  0  0  0
 13 14  4  0  0  0  0
 14 15  4  0  0  0  0
 15 16  4  0  0  0  0
 16 17  4  0  0  0  0
 17 18  4  0  0  0  0
 13 18  4  0  0  0  0
 18 19  4  0  0  0  0
  3 19  4  0  0  0  0
M  END

> <ChembankId>
2551

> <SMILES>
COc1cc(NC(C)CCCN)c2ncccc2c1

> <InChI>
1/C15H21N3O/c1-11(5-3-7-16)18-14-10-13(19-2)9-12-6-4-8-17-15(12)14/h4,6,8-11,18H,3,5,7,16H2,1-2H3

$$$$
1401
  Marvin  11101114192D          

 24 26  0  0  0  0            999 V2000
    2.8579    0.0000    0.0000 C   0  0  0  0  0  0  0  0  0  0  0  0
    3.5724    0.4125    0.0000 N   0  0  0  0  0  0  0  0  0  0  0  0
    3.5724    1.2375    0.0000 C   0  0  0  0  0  0  0  0  0  0  0  0
    4.2868    0.0000    0.0000 C   0  0  0  0  0  0  0  0  0  0  0  0
    5.0013    0.4125    0.0000 C   0  0  0  0  0  0  0  0  0  0  0  0
    5.7158    0.0000    0.0000 C   0  0  0  0  0  0  0  0  0  0  0  0
    6.4302    0.4125    0.0000 N   0  0  0  0  0  0  0  0  0  0  0  0
    6.4302    1.2375    0.0000 C   0  0  0  0  0  0  0  0  0  0  0  0
    5.7158    1.6500    0.0000 C   0  0  0  0  0  0  0  0  0  0  0  0
    5.7158    2.4750    0.0000 C   0  0  0  0  0  0  0  0  0  0  0  0
    6.4302    2.8875    0.0000 C   0  0  0  0  0  0  0  0  0  0  0  0
    7.1447    2.4750    0.0000 C   0  0  0  0  0  0  0  0  0  0  0  0
    7.1447    1.6500    0.0000 C   0  0  0  0  0  0  0  0  0  0  0  0
    7.8592    1.2375    0.0000 S   0  0  0  0  0  0  0  0  0  0  0  0
    7.8592    0.4125    0.0000 C   0  0  0  0  0  0  0  0  0  0  0  0
    8.5737    0.0000    0.0000 C   0  0  0  0  0  0  0  0  0  0  0  0
    8.5737   -0.8250    0.0000 C   0  0  0  0  0  0  0  0  0  0  0  0
    7.8592   -1.2375    0.0000 C   0  0  0  0  0  0  0  0  0  0  0  0
    7.1447   -0.8250    0.0000 C   0  0  0  0  0  0  0  0  0  0  0  0
    7.1447    0.0000    0.0000 C   0  0  0  0  0  0  0  0  0  0  0  0
    7.8592   -2.0625    0.0000 C   0  0  0  0  0  0  0  0  0  0  0  0
    7.8592   -2.8875    0.0000 F   0  0  0  0  0  0  0  0  0  0  0  0
    7.0342   -2.0625    0.0000 F   0  0  0  0  0  0  0  0  0  0  0  0
    8.6842   -2.0625    0.0000 F   0  0  0  0  0  0  0  0  0  0  0  0
  1  2  1  0  0  0  0
  2  3  1  0  0  0  0
  2  4  1  0  0  0  0
  4  5  1  0  0  0  0
  5  6  1  0  0  0  0
  6  7  1  0  0  0  0
  7  8  1  0  0  0  0
  8  9  4  0  0  0  0
  9 10  4  0  0  0  0
 10 11  4  0  0  0  0
 11 12  4  0  0  0  0
 12 13  4  0  0  0  0
  8 13  4  0  0  0  0
 13 14  1  0  0  0  0
 14 15  1  0  0  0  0
 15 16  4  0  0  0  0
 16 17  4  0  0  0  0
 17 18  4  0  0  0  0
 18 19  4  0  0  0  0
 19 20  4  0  0  0  0
  7 20  1  0  0  0  0
 15 20  4  0  0  0  0
 18 21  1  0  0  0  0
 21 22  1  0  0  0  0
 21 23  1  0  0  0  0
 21 24  1  0  0  0  0
M  END

> <ChembankId>
1401

> <SMILES>
CN(C)CCCN1c2ccccc2Sc3ccc(cc13)C(F)(F)F

> <InChI>
1/C18H19F3N2S/c1-22(2)10-5-11-23-14-6-3-4-7-16(14)24-17-9-8-13(12-15(17)23)18(19,20)21/h3-4,6-9,12H,5,10-11H2,1-2H3

$$$$
1402
  Marvin  11101114192D          

 12 12  0  0  0  0            999 V2000
    3.5724   -0.4125    0.0000 C   0  0  0  0  0  0  0  0  0  0  0  0
    2.8579   -0.8250    0.0000 C   0  0  0  0  0  0  0  0  0  0  0  0
    2.1434   -0.4125    0.0000 N   0  3  0  0  0  0  0  0  0  0  0  0
    2.5559    0.3020    0.0000 C   0  0  0  0  0  0  0  0  0  0  0  0
    1.7309   -1.1270    0.0000 C   0  0  0  0  0  0  0  0  0  0  0  0
    1.4289   -0.0000    0.0000 C   0  0  0  0  0  0  0  0  0  0  0  0
    0.7145   -0.4125    0.0000 C   0  0  0  0  0  0  0  0  0  0  0  0
    0.0000   -0.0000    0.0000 C   0  0  0  0  0  0  0  0  0  0  0  0
    0.0000    0.8250    0.0000 C   0  0  0  0  0  0  0  0  0  0  0  0
    0.7145    1.2375    0.0000 C   0  0  0  0  0  0  0  0  0  0  0  0
    0.7145    2.0625    0.0000 O   0  0  0  0  0  0  0  0  0  0  0  0
    1.4289    0.8250    0.0000 C   0  0  0  0  0  0  0  0  0  0  0  0
  1  2  1  0  0  0  0
  2  3  1  0  0  0  0
  3  4  1  0  0  0  0
  3  5  1  0  0  0  0
  3  6  1  0  0  0  0
  6  7  4  0  0  0  0
  7  8  4  0  0  0  0
  8  9  4  0  0  0  0
  9 10  4  0  0  0  0
 10 11  1  0  0  0  0
 10 12  4  0  0  0  0
  6 12  4  0  0  0  0
M  CHG  1   3   1
M  END

> <ChembankId>
1402

> <SMILES>
CC[N+](C)(C)c1cccc(O)c1

> <InChI>
1/C10H15NO/c1-4-11(2,3)9-6-5-7-10(12)8-9/h5-8H,4H2,1-3H3/p+1

$$$$
1403
  Marvin  11101114192D          

 11 11  0  0  0  0            999 V2000
    3.5724   -0.4125    0.0000 C   0  0  0  0  0  0  0  0  0  0  0  0
    2.8579   -0.0000    0.0000 O   0  0  0  0  0  0  0  0  0  0  0  0
    2.1434   -0.4125    0.0000 C   0  0  0  0  0  0  0  0  0  0  0  0
    2.1434   -1.2375    0.0000 O   0  0  0  0  0  0  0  0  0  0  0  0
    1.4289   -0.0000    0.0000 C   0  0  0  0  0  0  0  0  0  0  0  0
    0.7145   -0.4125    0.0000 C   0  0  0  0  0  0  0  0  0  0  0  0
    0.0000   -0.0000    0.0000 C   0  0  0  0  0  0  0  0  0  0  0  0
    0.0000    0.8250    0.0000 C   0  0  0  0  0  0  0  0  0  0  0  0
    0.7145    1.2375    0.0000 N   0  0  0  0  0  0  0  0  0  0  0  0
    0.7145    2.0625    0.0000 C   0  0  0  0  0  0  0  0  0  0  0  0
    1.4289    0.8250    0.0000 C   0  0  0  0  0  0  0  0  0  0  0  0
  1  2  1  0  0  0  0
  2  3  1  0  0  0  0
  3  4  2  0  0  0  0
  3  5  1  0  0  0  0
  5  6  2  0  0  0  0
  6  7  1  0  0  0  0
  7  8  1  0  0  0  0
  8  9  1  0  0  0  0
  9 10  1  0  0  0  0
  9 11  1  0  0  0  0
  5 11  1  0  0  0  0
M  END

> <ChembankId>
1403

> <SMILES>
COC(=O)C1=CCCN(C)C1

> <InChI>
1/C8H13NO2/c1-9-5-3-4-7(6-9)8(10)11-2/h4H,3,5-6H2,1-2H3

$$$$
1404
  Marvin  11101114192D          

 16 17  0  0  0  0            999 V2000
    1.4289   -1.6500    0.0000 N   0  0  0  0  0  0  0  0  0  0  0  0
    1.4289   -2.4750    0.0000 C   0  0  0  0  0  0  0  0  0  0  0  0
    2.1434   -2.8875    0.0000 C   0  0  0  0  0  0  0  0  0  0  0  0
    2.1434   -3.7125    0.0000 C   0  0  0  0  0  0  0  0  0  0  0  0
    1.4289   -4.1250    0.0000 C   0  0  0  0  0  0  0  0  0  0  0  0
    1.4289   -4.9500    0.0000 N   0  0  0  0  0  0  0  0  0  0  0  0
    2.1434   -5.3625    0.0000 N   0  0  0  0  0  0  0  0  0  0  0  0
    2.1434   -6.1875    0.0000 C   0  0  0  0  0  0  0  0  0  0  0  0
    2.8579   -6.6000    0.0000 C   0  0  0  0  0  0  0  0  0  0  0  0
    2.8579   -7.4250    0.0000 C   0  0  0  0  0  0  0  0  0  0  0  0
    2.1434   -7.8375    0.0000 C   0  0  0  0  0  0  0  0  0  0  0  0
    1.4289   -7.4250    0.0000 C   0  0  0  0  0  0  0  0  0  0  0  0
    1.4289   -6.6000    0.0000 C   0  0  0  0  0  0  0  0  0  0  0  0
    0.7145   -3.7125    0.0000 C   0  0  0  0  0  0  0  0  0  0  0  0
    0.0000   -4.1250    0.0000 N   0  0  0  0  0  0  0  0  0  0  0  0
    0.7145   -2.8875    0.0000 N   0  0  0  0  0  0  0  0  0  0  0  0
  1  2  1  0  0  0  0
  2  3  4  0  0  0  0
  3  4  4  0  0  0  0
  4  5  4  0  0  0  0
  6  5  1  4  0  0  0
  6  7  2  0  0  0  0
  7  8  1  0  0  0  0
  8  9  4  0  0  0  0
  9 10  4  0  0  0  0
 10 11  4  0  0  0  0
 11 12  4  0  0  0  0
 12 13  4  0  0  0  0
  8 13  4  0  0  0  0
  5 14  4  0  0  0  0
 14 15  1  0  0  0  0
 14 16  4  0  0  0  0
  2 16  4  0  0  0  0
M  END

> <ChembankId>
1404

> <SMILES>
Nc1ccc(N=Nc2ccccc2)c(N)n1

> <InChI>
1/C11H11N5/c12-10-7-6-9(11(13)14-10)16-15-8-4-2-1-3-5-8/h1-7H,(H4,12,13,14)

$$$$
1408
  Marvin  11101114192D          

 11 13  0  0  0  0            999 V2000
    0.8517   -2.4835    0.0000 N   0  0  0  0  0  0  0  0  0  0  0  0
    0.8517   -1.6585    0.0000 C   0  0  0  0  0  0  0  0  0  0  0  0
    0.1163   -2.0322    0.0000 C   0  0  0  0  0  0  0  0  0  0  0  0
    0.5657   -1.2419    0.0000 C   0  0  0  0  0  0  0  0  0  0  0  0
    1.3012   -1.6156    0.0000 C   0  0  0  0  0  0  0  0  0  0  0  0
    2.0368   -1.2419    0.0000 C   0  0  0  0  0  0  0  0  0  0  0  0
    2.0368   -0.4945    0.0000 C   0  0  0  0  0  0  0  0  0  0  0  0
    1.3012   -0.1208    0.0000 C   0  0  0  0  0  0  0  0  0  0  0  0
    0.5657   -0.4945    0.0000 C   0  0  0  0  0  0  0  0  0  0  0  0
    0.8517   -0.9111    0.0000 C   0  0  0  0  0  0  0  0  0  0  0  0
    1.5873   -2.0322    0.0000 C   0  0  0  0  0  0  0  0  0  0  0  0
  1  2  1  0  0  0  0
  2  3  1  0  0  0  0
  3  4  1  0  0  0  0
  4  5  1  0  0  0  0
  5  6  1  0  0  0  0
  6 11  1  0  0  0  0
  7  8  1  0  0  0  0
  8  9  1  0  0  0  0
  2 11  1  0  0  0  0
  8 10  1  0  0  0  0
  2 10  1  0  0  0  0
  4  9  1  0  0  0  0
  6  7  1  0  0  0  0
M  END

> <ChembankId>
1408

> <SMILES>
NC1(CC2CC3CC(C2)C1)C3

> <InChI>
1/C10H17N/c11-10-4-7-1-8(5-10)3-9(2-7)6-10/h7-9H,1-6,11H2

$$$$
1409
  Marvin  11101114192D          

 18 17  0  0  0  0            999 V2000
    7.4408   -0.1390    0.0000 C   0  0  0  0  0  0  0  0  0  0  0  0
    7.7470    0.6271    0.0000 C   0  0  0  0  0  0  0  0  0  0  0  0
    7.2367    1.2753    0.0000 C   0  0  0  0  0  0  0  0  0  0  0  0
    7.5429    2.0413    0.0000 C   0  0  0  0  0  0  0  0  0  0  0  0
    7.8491    2.8074    0.0000 C   0  0  0  0  0  0  0  0  0  0  0  0
    6.7768    2.3475    0.0000 C   0  0  0  0  0  0  0  0  0  0  0  0
    6.1286    1.8372    0.0000 O   0  0  0  0  0  0  0  0  0  0  0  0
    5.3625    2.1434    0.0000 C   0  0  0  0  0  0  0  0  0  0  0  0
    4.7143    1.6331    0.0000 O   0  0  0  0  0  0  0  0  0  0  0  0
    5.2446    2.9600    0.0000 N   0  0  0  0  0  0  0  0  0  0  0  0
    8.3089    1.7351    0.0000 C   0  0  0  0  0  0  0  0  0  0  0  0
    8.9571    2.2455    0.0000 O   0  0  0  0  0  0  0  0  0  0  0  0
    9.7232    1.9393    0.0000 C   0  0  0  0  0  0  0  0  0  0  0  0
    9.8411    1.1227    0.0000 O   0  0  0  0  0  0  0  0  0  0  0  0
   10.3714    2.4496    0.0000 N   0  0  0  0  0  0  0  0  0  0  0  0
   11.1375    2.1434    0.0000 C   0  0  0  0  0  0  0  0  0  0  0  0
   11.7857    2.6537    0.0000 C   0  0  0  0  0  0  0  0  0  0  0  0
   11.2554    1.3269    0.0000 C   0  0  0  0  0  0  0  0  0  0  0  0
  1  2  1  0  0  0  0
  2  3  1  0  0  0  0
  3  4  1  0  0  0  0
  4  5  1  0  0  0  0
  4  6  1  0  0  0  0
  6  7  1  0  0  0  0
  7  8  1  0  0  0  0
  8  9  2  0  0  0  0
  8 10  1  0  0  0  0
  4 11  1  0  0  0  0
 11 12  1  0  0  0  0
 12 13  1  0  0  0  0
 13 14  2  0  0  0  0
 13 15  1  0  0  0  0
 15 16  1  0  0  0  0
 16 17  1  0  0  0  0
 16 18  1  0  0  0  0
M  END

> <ChembankId>
1409

> <SMILES>
CCCC(C)(COC(=O)N)COC(=O)NC(C)C

> <InChI>
1/C12H24N2O4/c1-5-6-12(4,7-17-10(13)15)8-18-11(16)14-9(2)3/h9H,5-8H2,1-4H3,(H2,13,15)(H,14,16)

$$$$
1412
  Marvin  11101114192D          

 20 21  0  0  0  0            999 V2000
   -2.8579   -1.6500    0.0000 C   0  0  0  0  0  0  0  0  0  0  0  0
   -2.1434   -1.2375    0.0000 N   0  0  0  0  0  0  0  0  0  0  0  0
   -2.1434   -0.4125    0.0000 C   0  0  0  0  0  0  0  0  0  0  0  0
   -1.4289   -1.6500    0.0000 C   0  0  0  0  0  0  0  0  0  0  0  0
   -0.7145   -1.2375    0.0000 C   0  0  0  0  0  0  0  0  0  0  0  0
    0.0000   -1.6500    0.0000 O   0  0  0  0  0  0  0  0  0  0  0  0
    0.7145   -1.2375    0.0000 C   0  0  0  0  0  0  0  0  0  0  0  0
    1.4289   -1.6500    0.0000 C   0  0  0  0  0  0  0  0  0  0  0  0
    2.1434   -1.2375    0.0000 C   0  0  0  0  0  0  0  0  0  0  0  0
    2.8579   -1.6500    0.0000 C   0  0  0  0  0  0  0  0  0  0  0  0
    2.8579   -2.4750    0.0000 C   0  0  0  0  0  0  0  0  0  0  0  0
    3.5724   -2.8875    0.0000 Cl  0  0  0  0  0  0  0  0  0  0  0  0
    2.1434   -2.8875    0.0000 C   0  0  0  0  0  0  0  0  0  0  0  0
    1.4289   -2.4750    0.0000 C   0  0  0  0  0  0  0  0  0  0  0  0
    0.7145   -0.4125    0.0000 C   0  0  0  0  0  0  0  0  0  0  0  0
    0.0000   -0.0000    0.0000 C   0  0  0  0  0  0  0  0  0  0  0  0
    0.0000    0.8250    0.0000 C   0  0  0  0  0  0  0  0  0  0  0  0
    0.7145    1.2375    0.0000 C   0  0  0  0  0  0  0  0  0  0  0  0
    1.4289    0.8250    0.0000 C   0  0  0  0  0  0  0  0  0  0  0  0
    1.4289    0.0000    0.0000 N   0  0  0  0  0  0  0  0  0  0  0  0
  1  2  1  0  0  0  0
  2  3  1  0  0  0  0
  2  4  1  0  0  0  0
  4  5  1  0  0  0  0
  5  6  1  0  0  0  0
  6  7  1  0  0  0  0
  7  8  1  0  0  0  0
  8  9  4  0  0  0  0
  9 10  4  0  0  0  0
 10 11  4  0  0  0  0
 11 12  1  0  0  0  0
 11 13  4  0  0  0  0
 13 14  4  0  0  0  0
  8 14  4  0  0  0  0
  7 15  1  0  0  0  0
 15 16  4  0  0  0  0
 16 17  4  0  0  0  0
 17 18  4  0  0  0  0
 18 19  4  0  0  0  0
 19 20  4  0  0  0  0
 15 20  4  0  0  0  0
M  END

> <ChembankId>
1412

> <SMILES>
CN(C)CCOC(c1ccc(Cl)cc1)c2ccccn2

> <InChI>
1/C16H19ClN2O/c1-19(2)11-12-20-16(15-5-3-4-10-18-15)13-6-8-14(17)9-7-13/h3-10,16H,11-12H2,1-2H3

$$$$
1418
  Marvin  11101114192D          

 32 35  0  0  1  0            999 V2000
    5.7158    2.4750    0.0000 C   0  0  0  0  0  0  0  0  0  0  0  0
    5.0013    2.0625    0.0000 N   0  0  0  0  0  0  0  0  0  0  0  0
    4.2868    2.4750    0.0000 C   0  0  0  0  0  0  0  0  0  0  0  0
    5.0013    1.2375    0.0000 C   0  0  1  0  0  0  0  0  0  0  0  0
    4.2868    0.8250    0.0000 C   0  0  2  0  0  0  0  0  0  0  0  0
    3.5724    1.2375    0.0000 C   0  0  0  0  0  0  0  0  0  0  0  0
    2.8579    0.8250    0.0000 C   0  0  1  0  0  0  0  0  0  0  0  0
    2.8579    0.0000    0.0000 C   0  0  0  0  0  0  0  0  0  0  0  0
    3.5724   -0.4125    0.0000 C   0  0  0  0  0  0  0  0  0  0  0  0
    3.5724   -1.2375    0.0000 O   0  0  0  0  0  0  0  0  0  0  0  0
    4.2868    0.0000    0.0000 C   0  0  1  0  0  0  0  0  0  0  0  0
    4.2868   -0.8250    0.0000 O   0  0  0  0  0  0  0  0  0  0  0  0
    5.0013   -0.4125    0.0000 C   0  0  0  0  0  0  0  0  0  0  0  0
    5.0013   -1.2375    0.0000 O   0  0  0  0  0  0  0  0  0  0  0  0
    5.7158   -0.0000    0.0000 C   0  0  0  0  0  0  0  0  0  0  0  0
    5.7158    0.8250    0.0000 C   0  0  0  0  0  0  0  0  0  0  0  0
    6.4302    1.2375    0.0000 O   0  0  0  0  0  0  0  0  0  0  0  0
    6.4302   -0.4125    0.0000 C   0  0  0  0  0  0  0  0  0  0  0  0
    7.1447   -0.0000    0.0000 O   0  0  0  0  0  0  0  0  0  0  0  0
    6.4302   -1.2375    0.0000 N   0  0  0  0  0  0  0  0  0  0  0  0
    2.1434   -0.4125    0.0000 C   0  0  0  0  0  0  0  0  0  0  0  0
    2.1434   -1.2375    0.0000 O   0  0  0  0  0  0  0  0  0  0  0  0
    1.4289   -0.0000    0.0000 C   0  0  0  0  0  0  0  0  0  0  0  0
    0.7145   -0.4125    0.0000 C   0  0  0  0  0  0  0  0  0  0  0  0
    0.7145   -1.2375    0.0000 O   0  0  0  0  0  0  0  0  0  0  0  0
   -0.0000    0.0000    0.0000 C   0  0  0  0  0  0  0  0  0  0  0  0
    0.0000    0.8250    0.0000 C   0  0  0  0  0  0  0  0  0  0  0  0
    0.7145    1.2375    0.0000 C   0  0  0  0  0  0  0  0  0  0  0  0
    1.4289    0.8250    0.0000 C   0  0  0  0  0  0  0  0  0  0  0  0
    2.1434    1.2375    0.0000 C   0  0  2  0  0  0  0  0  0  0  0  0
    1.7561    1.9659    0.0000 C   0  0  0  0  0  0  0  0  0  0  0  0
    2.5307    1.9659    0.0000 O   0  0  0  0  0  0  0  0  0  0  0  0
  1  2  1  0  0  0  0
  2  3  1  0  0  0  0
  4  2  1  6  0  0  0
  4  5  1  0  0  0  0
  5  6  1  1  0  0  0
  7  6  1  1  0  0  0
  7  8  1  0  0  0  0
  8  9  2  0  0  0  0
  9 10  1  0  0  0  0
  9 11  1  0  0  0  0
  5 11  1  0  0  0  0
 11 12  1  6  0  0  0
 11 13  1  0  0  0  0
 13 14  2  0  0  0  0
 13 15  1  0  0  0  0
 15 16  2  0  0  0  0
  4 16  1  0  0  0  0
 16 17  1  0  0  0  0
 15 18  1  0  0  0  0
 18 19  2  0  0  0  0
 18 20  1  0  0  0  0
  8 21  1  0  0  0  0
 21 22  2  0  0  0  0
 21 23  1  0  0  0  0
 23 24  4  0  0  0  0
 24 25  1  0  0  0  0
 24 26  4  0  0  0  0
 26 27  4  0  0  0  0
 27 28  4  0  0  0  0
 28 29  4  0  0  0  0
 23 29  4  0  0  0  0
 29 30  1  0  0  0  0
  7 30  1  0  0  0  0
 30 31  1  6  0  0  0
 30 32  1  1  0  0  0
M  END

> <ChembankId>
1418

> <SMILES>
CN(C)[C@H]1[C@@H]2C[C@H]3C(=C(O)[C@]2(O)C(=O)C(=C1O)C(=O)N)C(=O)c4c(O)cccc4[C@@]3(C)O

> <InChI>
1/C22H24N2O8/c1-21(31)8-5-4-6-11(25)12(8)16(26)13-9(21)7-10-15(24(2)3)17(27)14(20(23)30)19(29)22(10,32)18(13)28/h4-6,9-10,15,25,27-28,31-32H,7H2,1-3H3,(H2,23,30)

$$$$
1424
  Marvin  11101114192D          

 32 35  0  0  1  0            999 V2000
   -5.6339    0.6058    0.0000 C   0  0  0  0  0  0  0  0  0  0  0  0
   -4.8493    0.8608    0.0000 C   0  0  0  0  0  0  0  0  0  0  0  0
   -4.2362    0.3087    0.0000 C   0  0  0  0  0  0  0  0  0  0  0  0
   -3.4516    0.5637    0.0000 C   0  0  0  0  0  0  0  0  0  0  0  0
   -3.2800    1.3707    0.0000 O   0  0  0  0  0  0  0  0  0  0  0  0
   -2.8385    0.0117    0.0000 N   0  0  0  0  0  0  0  0  0  0  0  0
   -2.0538    0.2666    0.0000 C   0  0  0  0  0  0  0  0  0  0  0  0
   -1.8823    1.0736    0.0000 N   0  0  0  0  0  0  0  0  0  0  0  0
   -1.0977    1.3285    0.0000 C   0  0  0  0  0  0  0  0  0  0  0  0
   -0.4846    0.7765    0.0000 N   0  0  0  0  0  0  0  0  0  0  0  0
   -0.6561   -0.0305    0.0000 C   0  0  0  0  0  0  0  0  0  0  0  0
   -0.1712   -0.6979    0.0000 N   0  0  0  0  0  0  0  0  0  0  0  0
   -0.6561   -1.3654    0.0000 C   0  0  0  0  0  0  0  0  0  0  0  0
   -1.4407   -1.1104    0.0000 N   0  0  0  0  0  0  0  0  0  0  0  0
   -1.4407   -0.2854    0.0000 C   0  0  0  0  0  0  0  0  0  0  0  0
    0.6538   -0.6979    0.0000 C   0  0  0  0  0  0  0  0  0  0  0  0
    1.1387   -0.0305    0.0000 O   0  0  0  0  0  0  0  0  0  0  0  0
    1.9233   -0.2854    0.0000 C   0  0  2  0  0  0  0  0  0  0  0  0
    2.6378    0.1271    0.0000 C   0  0  0  0  0  0  0  0  0  0  0  0
    3.3523   -0.2854    0.0000 O   0  0  0  0  0  0  0  0  0  0  0  0
    3.3523   -1.1104    0.0000 P   0  0  0  0  0  0  0  0  0  0  0  0
    4.1648   -0.9672    0.0000 O   0  0  0  0  0  0  0  0  0  0  0  0
    3.6345   -1.8857    0.0000 O   0  0  0  0  0  0  0  0  0  0  0  0
    2.6378   -1.5229    0.0000 O   0  0  0  0  0  0  0  0  0  0  0  0
    1.9233   -1.1104    0.0000 C   0  0  1  0  0  0  0  0  0  0  0  0
    1.1387   -1.3654    0.0000 C   0  0  1  0  0  0  0  0  0  0  0  0
    0.8838   -2.1500    0.0000 O   0  0  0  0  0  0  0  0  0  0  0  0
    0.0768   -2.3215    0.0000 C   0  0  0  0  0  0  0  0  0  0  0  0
   -0.4752   -1.7084    0.0000 O   0  0  0  0  0  0  0  0  0  0  0  0
   -0.1781   -3.1062    0.0000 C   0  0  0  0  0  0  0  0  0  0  0  0
    0.3739   -3.7192    0.0000 C   0  0  0  0  0  0  0  0  0  0  0  0
    1.1809   -3.5477    0.0000 C   0  0  0  0  0  0  0  0  0  0  0  0
  1  2  1  0  0  0  0
  2  3  1  0  0  0  0
  3  4  1  0  0  0  0
  4  5  2  0  0  0  0
  4  6  1  0  0  0  0
  6  7  1  0  0  0  0
  7  8  4  0  0  0  0
  8  9  4  0  0  0  0
  9 10  4  0  0  0  0
 10 11  4  0  0  0  0
 11 12  4  0  0  0  0
 12 13  4  0  0  0  0
 13 14  4  0  0  0  0
 14 15  4  0  0  0  0
  7 15  4  0  0  0  0
 11 15  4  0  0  0  0
 12 16  1  0  0  0  0
 16 17  1  0  0  0  0
 18 17  1  6  0  0  0
 18 19  1  0  0  0  0
 19 20  1  0  0  0  0
 20 21  1  0  0  0  0
 21 22  2  0  0  0  0
 21 23  1  0  0  0  0
 21 24  1  0  0  0  0
 25 24  1  1  0  0  0
 18 25  1  0  0  0  0
 25 26  1  0  0  0  0
 16 26  1  0  0  0  0
 26 27  1  1  0  0  0
 27 28  1  0  0  0  0
 28 29  2  0  0  0  0
 28 30  1  0  0  0  0
 30 31  1  0  0  0  0
 31 32  1  0  0  0  0
M  END

> <ChembankId>
1424

> <SMILES>
CCCC(=O)Nc1ncnc2n(cnc12)C3O[C@@H]4COP(=O)(O)O[C@H]4[C@H]3OC(=O)CCC

> <InChI>
1/C18H24N5O8P/c1-3-5-11(24)22-16-13-17(20-8-19-16)23(9-21-13)18-15(30-12(25)6-4-2)14-10(29-18)7-28-32(26,27)31-14/h8-10,14-15,18H,3-7H2,1-2H3,(H,26,27)(H,19,20,22,24)

$$$$
1425
  Marvin  11101114192D          

 13 13  0  0  0  0            999 V2000
    2.8579    3.3000    0.0000 C   0  0  0  0  0  0  0  0  0  0  0  0
    2.8579    2.4750    0.0000 C   0  0  0  0  0  0  0  0  0  0  0  0
    3.5724    2.0625    0.0000 N   0  0  0  0  0  0  0  0  0  0  0  0
    2.1434    2.0625    0.0000 C   0  0  0  0  0  0  0  0  0  0  0  0
    2.1434    1.2375    0.0000 O   0  0  0  0  0  0  0  0  0  0  0  0
    1.4289    0.8250    0.0000 C   0  0  0  0  0  0  0  0  0  0  0  0
    1.4289   -0.0000    0.0000 C   0  0  0  0  0  0  0  0  0  0  0  0
    2.1434   -0.4125    0.0000 C   0  0  0  0  0  0  0  0  0  0  0  0
    0.7145   -0.4125    0.0000 C   0  0  0  0  0  0  0  0  0  0  0  0
    0.0000    0.0000    0.0000 C   0  0  0  0  0  0  0  0  0  0  0  0
    0.0000    0.8250    0.0000 C   0  0  0  0  0  0  0  0  0  0  0  0
    0.7145    1.2375    0.0000 C   0  0  0  0  0  0  0  0  0  0  0  0
    0.7145    2.0625    0.0000 C   0  0  0  0  0  0  0  0  0  0  0  0
  1  2  1  0  0  0  0
  2  3  1  0  0  0  0
  2  4  1  0  0  0  0
  4  5  1  0  0  0  0
  5  6  1  0  0  0  0
  6  7  4  0  0  0  0
  7  8  1  0  0  0  0
  7  9  4  0  0  0  0
  9 10  4  0  0  0  0
 10 11  4  0  0  0  0
 11 12  4  0  0  0  0
  6 12  4  0  0  0  0
 12 13  1  0  0  0  0
M  END

> <ChembankId>
1425

> <SMILES>
CC(N)COc1c(C)cccc1C

> <InChI>
1/C11H17NO/c1-8-5-4-6-9(2)11(8)13-7-10(3)12/h4-6,10H,7,12H2,1-3H3

$$$$
1426
  Marvin  11101114192D          

 12 11  0  0  0  0            999 V2000
    2.9980    2.5559    0.0000 Cl  0  0  0  0  0  0  0  0  0  0  0  0
    3.7125    2.1434    0.0000 C   0  0  0  0  0  0  0  0  0  0  0  0
    4.4270    2.5559    0.0000 C   0  0  0  0  0  0  0  0  0  0  0  0
    5.1414    2.1434    0.0000 N   0  0  0  0  0  0  0  0  0  0  0  0
    5.8559    2.5559    0.0000 C   0  0  0  0  0  0  0  0  0  0  0  0
    5.8559    3.3809    0.0000 O   0  0  0  0  0  0  0  0  0  0  0  0
    6.5704    2.1434    0.0000 N   0  0  0  0  0  0  0  0  0  0  0  0
    7.2849    2.5559    0.0000 C   0  0  0  0  0  0  0  0  0  0  0  0
    7.9993    2.1434    0.0000 C   0  0  0  0  0  0  0  0  0  0  0  0
    8.7138    2.5559    0.0000 Cl  0  0  0  0  0  0  0  0  0  0  0  0
    6.5704    1.3184    0.0000 N   0  0  0  0  0  0  0  0  0  0  0  0
    7.2849    0.9059    0.0000 O   0  0  0  0  0  0  0  0  0  0  0  0
  1  2  1  0  0  0  0
  2  3  1  0  0  0  0
  3  4  1  0  0  0  0
  4  5  1  0  0  0  0
  5  6  2  0  0  0  0
  5  7  1  0  0  0  0
  7  8  1  0  0  0  0
  8  9  1  0  0  0  0
  9 10  1  0  0  0  0
  7 11  1  0  0  0  0
 11 12  2  0  0  0  0
M  END

> <ChembankId>
1426

> <SMILES>
ClCCNC(=O)N(CCCl)N=O

> <InChI>
1/C5H9Cl2N3O2/c6-1-3-8-5(11)10(9-12)4-2-7/h1-4H2,(H,8,11)

$$$$
1428
  Marvin  11101114192D          

 18 19  0  0  0  0            999 V2000
    0.7145   -3.7125    0.0000 C   0  0  0  0  0  0  0  0  0  0  0  0
    1.4289   -4.1250    0.0000 C   0  0  0  0  0  0  0  0  0  0  0  0
    1.4289   -4.9500    0.0000 C   0  0  0  0  0  0  0  0  0  0  0  0
    2.1434   -3.7125    0.0000 N   0  0  0  0  0  0  0  0  0  0  0  0
    2.8579   -4.1250    0.0000 C   0  0  0  0  0  0  0  0  0  0  0  0
    3.5724   -3.7125    0.0000 C   0  0  0  0  0  0  0  0  0  0  0  0
    3.5724   -2.8875    0.0000 O   0  0  0  0  0  0  0  0  0  0  0  0
    4.2868   -4.1250    0.0000 C   0  0  0  0  0  0  0  0  0  0  0  0
    5.0013   -3.7125    0.0000 O   0  0  0  0  0  0  0  0  0  0  0  0
    5.7158   -4.1250    0.0000 C   0  0  0  0  0  0  0  0  0  0  0  0
    6.4302   -3.7125    0.0000 C   0  0  0  0  0  0  0  0  0  0  0  0
    7.1447   -4.1250    0.0000 C   0  0  0  0  0  0  0  0  0  0  0  0
    7.1447   -4.9500    0.0000 C   0  0  0  0  0  0  0  0  0  0  0  0
    6.4302   -5.3625    0.0000 C   0  0  0  0  0  0  0  0  0  0  0  0
    6.2587   -6.1695    0.0000 N   0  0  0  0  0  0  0  0  0  0  0  0
    5.4382   -6.2557    0.0000 C   0  0  0  0  0  0  0  0  0  0  0  0
    5.1027   -5.5020    0.0000 C   0  0  0  0  0  0  0  0  0  0  0  0
    5.7158   -4.9500    0.0000 C   0  0  0  0  0  0  0  0  0  0  0  0
  1  2  1  0  0  0  0
  2  3  1  0  0  0  0
  2  4  1  0  0  0  0
  4  5  1  0  0  0  0
  5  6  1  0  0  0  0
  6  7  1  0  0  0  0
  6  8  1  0  0  0  0
  8  9  1  0  0  0  0
  9 10  1  0  0  0  0
 10 11  4  0  0  0  0
 11 12  4  0  0  0  0
 12 13  4  0  0  0  0
 13 14  4  0  0  0  0
 14 15  4  0  0  0  0
 15 16  4  0  0  0  0
 16 17  4  0  0  0  0
 17 18  4  0  0  0  0
 10 18  4  0  0  0  0
 14 18  4  0  0  0  0
M  STY  1   1 DAT
M  SAL   1  1  15
M  SDT   1 MRV_IMPLICIT_H                                        
M  SDD   1     0.0000    0.0000    DR    ALL  0       0  
M  SED   1 IMPL_H1
M  END

> <ChembankId>
1428

> <SMILES>
CC(C)NCC(O)COc1cccc2[nH]ccc12

> <InChI>
1/C14H20N2O2/c1-10(2)16-8-11(17)9-18-14-5-3-4-13-12(14)6-7-15-13/h3-7,10-11,15-17H,8-9H2,1-2H3

$$$$
1431
  Marvin  11101114192D          

 23 25  0  0  0  0            999 V2000
   -3.5724   -0.4125    0.0000 Cl  0  0  0  0  0  0  0  0  0  0  0  0
   -2.8579   -0.8250    0.0000 C   0  0  0  0  0  0  0  0  0  0  0  0
   -2.1434   -0.4125    0.0000 C   0  0  0  0  0  0  0  0  0  0  0  0
   -1.4289   -0.8250    0.0000 C   0  0  0  0  0  0  0  0  0  0  0  0
   -1.4289   -1.6500    0.0000 C   0  0  0  0  0  0  0  0  0  0  0  0
   -2.1434   -2.0625    0.0000 C   0  0  0  0  0  0  0  0  0  0  0  0
   -2.8579   -1.6500    0.0000 C   0  0  0  0  0  0  0  0  0  0  0  0
   -0.7145   -2.0625    0.0000 C   0  0  0  0  0  0  0  0  0  0  0  0
    0.0000   -1.6500    0.0000 O   0  0  0  0  0  0  0  0  0  0  0  0
    0.7145   -2.0625    0.0000 C   0  0  0  0  0  0  0  0  0  0  0  0
    1.4289   -1.6500    0.0000 C   0  0  0  0  0  0  0  0  0  0  0  0
    2.1434   -2.0625    0.0000 N   0  0  0  0  0  0  0  0  0  0  0  0
    2.8579   -1.6500    0.0000 C   0  0  0  0  0  0  0  0  0  0  0  0
    3.5724   -2.0625    0.0000 C   0  0  0  0  0  0  0  0  0  0  0  0
    3.5724   -2.8875    0.0000 C   0  0  0  0  0  0  0  0  0  0  0  0
    2.8579   -3.3000    0.0000 C   0  0  0  0  0  0  0  0  0  0  0  0
    2.1434   -2.8875    0.0000 C   0  0  0  0  0  0  0  0  0  0  0  0
   -0.7145   -2.8875    0.0000 C   0  0  0  0  0  0  0  0  0  0  0  0
    0.0000   -3.3000    0.0000 C   0  0  0  0  0  0  0  0  0  0  0  0
    0.0000   -4.1250    0.0000 C   0  0  0  0  0  0  0  0  0  0  0  0
   -0.7145   -4.5375    0.0000 C   0  0  0  0  0  0  0  0  0  0  0  0
   -1.4289   -4.1250    0.0000 C   0  0  0  0  0  0  0  0  0  0  0  0
   -1.4289   -3.3000    0.0000 C   0  0  0  0  0  0  0  0  0  0  0  0
  1  2  1  0  0  0  0
  2  3  4  0  0  0  0
  3  4  4  0  0  0  0
  4  5  4  0  0  0  0
  5  6  4  0  0  0  0
  6  7  4  0  0  0  0
  2  7  4  0  0  0  0
  5  8  1  0  0  0  0
  8  9  1  0  0  0  0
  9 10  1  0  0  0  0
 10 11  1  0  0  0  0
 11 12  1  0  0  0  0
 12 13  1  0  0  0  0
 13 14  1  0  0  0  0
 14 15  1  0  0  0  0
 15 16  1  0  0  0  0
 16 17  1  0  0  0  0
 12 17  1  0  0  0  0
  8 18  1  0  0  0  0
 18 19  4  0  0  0  0
 19 20  4  0  0  0  0
 20 21  4  0  0  0  0
 21 22  4  0  0  0  0
 22 23  4  0  0  0  0
 18 23  4  0  0  0  0
M  END

> <ChembankId>
1431

> <SMILES>
Clc1ccc(cc1)C(OCCN2CCCCC2)c3ccccc3

> <InChI>
1/C20H24ClNO/c21-19-11-9-18(10-12-19)20(17-7-3-1-4-8-17)23-16-15-22-13-5-2-6-14-22/h1,3-4,7-12,20H,2,5-6,13-16H2

$$$$
1432
  Marvin  11101114192D          

 20 21  0  0  0  0            999 V2000
   -2.4750   -2.2539    0.0000 C   0  0  0  0  0  0  0  0  0  0  0  0
   -1.7605   -2.6664    0.0000 N   0  0  0  0  0  0  0  0  0  0  0  0
   -1.7605   -3.4914    0.0000 C   0  0  0  0  0  0  0  0  0  0  0  0
   -1.0461   -2.2539    0.0000 C   0  0  0  0  0  0  0  0  0  0  0  0
   -0.3316   -2.6664    0.0000 C   0  0  0  0  0  0  0  0  0  0  0  0
    0.3829   -2.2539    0.0000 O   0  0  0  0  0  0  0  0  0  0  0  0
    1.0974   -2.6664    0.0000 C   0  0  0  0  0  0  0  0  0  0  0  0
    0.6849   -3.3809    0.0000 C   0  0  0  0  0  0  0  0  0  0  0  0
    1.8118   -3.0789    0.0000 C   0  0  0  0  0  0  0  0  0  0  0  0
    2.5263   -2.6664    0.0000 C   0  0  0  0  0  0  0  0  0  0  0  0
    3.2408   -3.0789    0.0000 C   0  0  0  0  0  0  0  0  0  0  0  0
    3.2408   -3.9039    0.0000 C   0  0  0  0  0  0  0  0  0  0  0  0
    2.5263   -4.3164    0.0000 C   0  0  0  0  0  0  0  0  0  0  0  0
    1.8118   -3.9039    0.0000 C   0  0  0  0  0  0  0  0  0  0  0  0
    1.5099   -1.9520    0.0000 C   0  0  0  0  0  0  0  0  0  0  0  0
    1.0974   -1.2375    0.0000 C   0  0  0  0  0  0  0  0  0  0  0  0
    1.5099   -0.5230    0.0000 C   0  0  0  0  0  0  0  0  0  0  0  0
    2.3349   -0.5230    0.0000 C   0  0  0  0  0  0  0  0  0  0  0  0
    2.7474   -1.2375    0.0000 C   0  0  0  0  0  0  0  0  0  0  0  0
    2.3349   -1.9520    0.0000 N   0  0  0  0  0  0  0  0  0  0  0  0
  1  2  1  0  0  0  0
  2  3  1  0  0  0  0
  2  4  1  0  0  0  0
  4  5  1  0  0  0  0
  5  6  1  0  0  0  0
  6  7  1  0  0  0  0
  7  8  1  0  0  0  0
  7  9  1  0  0  0  0
  9 10  4  0  0  0  0
 10 11  4  0  0  0  0
 11 12  4  0  0  0  0
 12 13  4  0  0  0  0
 13 14  4  0  0  0  0
  9 14  4  0  0  0  0
  7 15  1  0  0  0  0
 15 16  4  0  0  0  0
 16 17  4  0  0  0  0
 17 18  4  0  0  0  0
 18 19  4  0  0  0  0
 19 20  4  0  0  0  0
 15 20  4  0  0  0  0
M  END

> <ChembankId>
1432

> <SMILES>
CN(C)CCOC(C)(c1ccccc1)c2ccccn2

> <InChI>
1/C17H22N2O/c1-17(20-14-13-19(2)3,15-9-5-4-6-10-15)16-11-7-8-12-18-16/h4-12H,13-14H2,1-3H3

$$$$
1433
  Marvin  11101114192D          

 21 21  0  0  1  0            999 V2000
   -2.6961    1.0461    0.0000 C   0  0  0  0  0  0  0  0  0  0  0  0
   -1.8711    1.0461    0.0000 S   0  0  0  0  0  0  0  0  0  0  0  0
   -1.8711    0.2211    0.0000 O   0  0  0  0  0  0  0  0  0  0  0  0
   -1.8711    1.8711    0.0000 O   0  0  0  0  0  0  0  0  0  0  0  0
   -1.0461    1.0461    0.0000 C   0  0  0  0  0  0  0  0  0  0  0  0
   -0.6336    1.7605    0.0000 C   0  0  0  0  0  0  0  0  0  0  0  0
    0.1914    1.7605    0.0000 C   0  0  0  0  0  0  0  0  0  0  0  0
    0.6039    1.0461    0.0000 C   0  0  0  0  0  0  0  0  0  0  0  0
    0.1914    0.3316    0.0000 C   0  0  0  0  0  0  0  0  0  0  0  0
   -0.6336    0.3316    0.0000 C   0  0  0  0  0  0  0  0  0  0  0  0
    1.4289    1.0461    0.0000 C   0  0  1  0  0  0  0  0  0  0  0  0
    1.8414    0.3316    0.0000 O   0  0  0  0  0  0  0  0  0  0  0  0
    1.8414    1.7605    0.0000 C   0  0  1  0  0  0  0  0  0  0  0  0
    1.4289    2.4750    0.0000 C   0  0  0  0  0  0  0  0  0  0  0  0
    1.8414    3.1895    0.0000 O   0  0  0  0  0  0  0  0  0  0  0  0
    2.6664    1.7605    0.0000 N   0  0  0  0  0  0  0  0  0  0  0  0
    3.0789    2.4750    0.0000 C   0  0  0  0  0  0  0  0  0  0  0  0
    2.6664    3.1895    0.0000 O   0  0  0  0  0  0  0  0  0  0  0  0
    3.9039    2.4750    0.0000 C   0  0  0  0  0  0  0  0  0  0  0  0
    4.3164    3.1895    0.0000 Cl  0  0  0  0  0  0  0  0  0  0  0  0
    4.3164    1.7605    0.0000 Cl  0  0  0  0  0  0  0  0  0  0  0  0
  1  2  1  0  0  0  0
  2  3  2  0  0  0  0
  2  4  2  0  0  0  0
  2  5  1  0  0  0  0
  5  6  4  0  0  0  0
  6  7  4  0  0  0  0
  7  8  4  0  0  0  0
  8  9  4  0  0  0  0
  9 10  4  0  0  0  0
  5 10  4  0  0  0  0
  8 11  1  0  0  0  0
 11 12  1  6  0  0  0
 11 13  1  0  0  0  0
 13 14  1  0  0  0  0
 14 15  1  0  0  0  0
 13 16  1  1  0  0  0
 16 17  1  0  0  0  0
 17 18  2  0  0  0  0
 17 19  1  0  0  0  0
 19 20  1  0  0  0  0
 19 21  1  0  0  0  0
M  END

> <ChembankId>
1433

> <SMILES>
CS(=O)(=O)c1ccc(cc1)[C@@H](O)[C@@H](CO)NC(=O)C(Cl)Cl

> <InChI>
1/C12H15Cl2NO5S/c1-21(19,20)8-4-2-7(3-5-8)10(17)9(6-16)15-12(18)11(13)14/h2-5,9-11,16-17H,6H2,1H3,(H,15,18)

$$$$
1434
  Marvin  11101114192D          

 20 23  0  0  0  0            999 V2000
    4.6287    3.0804    0.0000 C   0  0  0  0  0  0  0  0  0  0  0  0
    4.2162    2.3659    0.0000 N   0  0  0  0  0  0  0  0  0  0  0  0
    3.3912    2.3659    0.0000 C   0  0  0  0  0  0  0  0  0  0  0  0
    2.9787    1.6515    0.0000 C   0  0  0  0  0  0  0  0  0  0  0  0
    3.3912    0.9370    0.0000 N   0  0  0  0  0  0  0  0  0  0  0  0
    4.2162    0.9370    0.0000 C   0  0  0  0  0  0  0  0  0  0  0  0
    4.6287    1.6515    0.0000 C   0  0  0  0  0  0  0  0  0  0  0  0
    4.7305    0.2920    0.0000 C   0  0  0  0  0  0  0  0  0  0  0  0
    5.5189    0.5352    0.0000 C   0  0  0  0  0  0  0  0  0  0  0  0
    6.1237   -0.0260    0.0000 C   0  0  0  0  0  0  0  0  0  0  0  0
    5.9401   -0.8303    0.0000 C   0  0  0  0  0  0  0  0  0  0  0  0
    5.1517   -1.0735    0.0000 C   0  0  0  0  0  0  0  0  0  0  0  0
    4.5470   -0.5123    0.0000 C   0  0  0  0  0  0  0  0  0  0  0  0
    3.8037   -0.8703    0.0000 C   0  0  0  0  0  0  0  0  0  0  0  0
    3.0604   -0.5123    0.0000 C   0  0  0  0  0  0  0  0  0  0  0  0
    2.4556   -1.0735    0.0000 C   0  0  0  0  0  0  0  0  0  0  0  0
    1.6673   -0.8303    0.0000 C   0  0  0  0  0  0  0  0  0  0  0  0
    1.4837   -0.0260    0.0000 C   0  0  0  0  0  0  0  0  0  0  0  0
    2.0884    0.5352    0.0000 C   0  0  0  0  0  0  0  0  0  0  0  0
    2.8768    0.2920    0.0000 C   0  0  0  0  0  0  0  0  0  0  0  0
  1  2  1  0  0  0  0
  2  3  1  0  0  0  0
  3  4  1  0  0  0  0
  4  5  1  0  0  0  0
  5  6  1  0  0  0  0
  6  7  1  0  0  0  0
  2  7  1  0  0  0  0
  6  8  1  0  0  0  0
  8  9  4  0  0  0  0
  9 10  4  0  0  0  0
 10 11  4  0  0  0  0
 11 12  4  0  0  0  0
 12 13  4  0  0  0  0
  8 13  4  0  0  0  0
 13 14  1  0  0  0  0
 14 15  1  0  0  0  0
 15 16  4  0  0  0  0
 16 17  4  0  0  0  0
 17 18  4  0  0  0  0
 18 19  4  0  0  0  0
 19 20  4  0  0  0  0
  5 20  1  0  0  0  0
 15 20  4  0  0  0  0
M  END

> <ChembankId>
1434

> <SMILES>
CN1CCN2C(C1)c3ccccc3Cc4ccccc24

> <InChI>
1/C18H20N2/c1-19-10-11-20-17-9-5-3-7-15(17)12-14-6-2-4-8-16(14)18(20)13-19/h2-9,18H,10-13H2,1H3

$$$$
1436
  Marvin  11101114192D          

 16 16  0  0  0  0            999 V2000
   -3.5724   -2.8875    0.0000 C   0  0  0  0  0  0  0  0  0  0  0  0
   -2.8579   -3.3000    0.0000 C   0  0  0  0  0  0  0  0  0  0  0  0
   -2.1434   -2.8875    0.0000 C   0  0  0  0  0  0  0  0  0  0  0  0
   -1.4289   -3.3000    0.0000 N   0  0  0  0  0  0  0  0  0  0  0  0
   -0.7145   -2.8875    0.0000 C   0  0  0  0  0  0  0  0  0  0  0  0
   -0.7145   -2.0625    0.0000 C   0  0  0  0  0  0  0  0  0  0  0  0
    0.0000   -3.3000    0.0000 C   0  0  0  0  0  0  0  0  0  0  0  0
    0.0000   -4.1250    0.0000 O   0  0  0  0  0  0  0  0  0  0  0  0
    0.7145   -2.8875    0.0000 N   0  0  0  0  0  0  0  0  0  0  0  0
    1.4289   -3.3000    0.0000 C   0  0  0  0  0  0  0  0  0  0  0  0
    2.1434   -2.8875    0.0000 C   0  0  0  0  0  0  0  0  0  0  0  0
    2.8579   -3.3000    0.0000 C   0  0  0  0  0  0  0  0  0  0  0  0
    2.8579   -4.1250    0.0000 C   0  0  0  0  0  0  0  0  0  0  0  0
    2.1434   -4.5375    0.0000 C   0  0  0  0  0  0  0  0  0  0  0  0
    1.4289   -4.1250    0.0000 C   0  0  0  0  0  0  0  0  0  0  0  0
    0.7145   -4.5375    0.0000 C   0  0  0  0  0  0  0  0  0  0  0  0
  1  2  1  0  0  0  0
  2  3  1  0  0  0  0
  3  4  1  0  0  0  0
  4  5  1  0  0  0  0
  5  6  1  0  0  0  0
  5  7  1  0  0  0  0
  7  8  2  0  0  0  0
  7  9  1  0  0  0  0
  9 10  1  0  0  0  0
 10 11  4  0  0  0  0
 11 12  4  0  0  0  0
 12 13  4  0  0  0  0
 13 14  4  0  0  0  0
 14 15  4  0  0  0  0
 10 15  4  0  0  0  0
 15 16  1  0  0  0  0
M  END

> <ChembankId>
1436

> <SMILES>
CCCNC(C)C(=O)Nc1ccccc1C

> <InChI>
1/C13H20N2O/c1-4-9-14-11(3)13(16)15-12-8-6-5-7-10(12)2/h5-8,11,14H,4,9H2,1-3H3,(H,15,16)

$$$$
1438
  Marvin  11101114192D          

 18 19  0  0  0  0            999 V2000
    1.4289    0.0000    0.0000 C   0  0  0  0  0  0  0  0  0  0  0  0
    2.1434   -0.4125    0.0000 C   0  0  0  0  0  0  0  0  0  0  0  0
    2.8579    0.0000    0.0000 C   0  0  0  0  0  0  0  0  0  0  0  0
    2.8579    0.8250    0.0000 O   0  0  0  0  0  0  0  0  0  0  0  0
    3.5724   -0.4125    0.0000 O   0  0  0  0  0  0  0  0  0  0  0  0
    2.1434   -1.2375    0.0000 C   0  0  0  0  0  0  0  0  0  0  0  0
    2.8579   -1.6500    0.0000 C   0  0  0  0  0  0  0  0  0  0  0  0
    2.8579   -2.4750    0.0000 C   0  0  0  0  0  0  0  0  0  0  0  0
    2.1434   -2.8875    0.0000 C   0  0  0  0  0  0  0  0  0  0  0  0
    1.4289   -2.4750    0.0000 C   0  0  0  0  0  0  0  0  0  0  0  0
    0.7145   -2.8875    0.0000 O   0  0  0  0  0  0  0  0  0  0  0  0
    0.0000   -2.4750    0.0000 C   0  0  0  0  0  0  0  0  0  0  0  0
   -0.7145   -2.8875    0.0000 C   0  0  0  0  0  0  0  0  0  0  0  0
   -1.4289   -2.4750    0.0000 C   0  0  0  0  0  0  0  0  0  0  0  0
   -1.4289   -1.6500    0.0000 C   0  0  0  0  0  0  0  0  0  0  0  0
   -0.7145   -1.2375    0.0000 C   0  0  0  0  0  0  0  0  0  0  0  0
    0.0000   -1.6500    0.0000 C   0  0  0  0  0  0  0  0  0  0  0  0
    1.4289   -1.6500    0.0000 C   0  0  0  0  0  0  0  0  0  0  0  0
  1  2  1  0  0  0  0
  2  3  1  0  0  0  0
  3  4  2  0  0  0  0
  3  5  1  0  0  0  0
  2  6  1  0  0  0  0
  6  7  4  0  0  0  0
  7  8  4  0  0  0  0
  8  9  4  0  0  0  0
  9 10  4  0  0  0  0
 10 11  1  0  0  0  0
 11 12  1  0  0  0  0
 12 13  4  0  0  0  0
 13 14  4  0  0  0  0
 14 15  4  0  0  0  0
 15 16  4  0  0  0  0
 16 17  4  0  0  0  0
 12 17  4  0  0  0  0
 10 18  4  0  0  0  0
  6 18  4  0  0  0  0
M  END

> <ChembankId>
1438

> <SMILES>
CC(C(=O)O)c1cccc(Oc2ccccc2)c1

> <InChI>
1/C15H14O3/c1-11(15(16)17)12-6-5-9-14(10-12)18-13-7-3-2-4-8-13/h2-11H,1H3,(H,16,17)

$$$$
1440
  Marvin  11101114192D          

 17 18  0  0  0  0            999 V2000
    0.0000   -2.4750    0.0000 C   0  0  0  0  0  0  0  0  0  0  0  0
    0.0000   -1.6500    0.0000 O   0  0  0  0  0  0  0  0  0  0  0  0
    0.7145   -1.2375    0.0000 C   0  0  0  0  0  0  0  0  0  0  0  0
    0.7145   -0.4125    0.0000 C   0  0  0  0  0  0  0  0  0  0  0  0
    1.4289    0.0000    0.0000 C   0  0  0  0  0  0  0  0  0  0  0  0
    2.1434   -0.4125    0.0000 C   0  0  0  0  0  0  0  0  0  0  0  0
    2.8579    0.0000    0.0000 C   0  0  0  0  0  0  0  0  0  0  0  0
    3.5724   -0.4125    0.0000 C   0  0  0  0  0  0  0  0  0  0  0  0
    4.2868   -0.0000    0.0000 C   0  0  0  0  0  0  0  0  0  0  0  0
    4.2868    0.8250    0.0000 C   0  0  0  0  0  0  0  0  0  0  0  0
    5.0013    1.2375    0.0000 C   0  0  0  0  0  0  0  0  0  0  0  0
    5.0013    2.0625    0.0000 O   0  0  0  0  0  0  0  0  0  0  0  0
    5.7158    0.8250    0.0000 C   0  0  0  0  0  0  0  0  0  0  0  0
    3.5724   -1.2375    0.0000 C   0  0  0  0  0  0  0  0  0  0  0  0
    2.8579   -1.6500    0.0000 C   0  0  0  0  0  0  0  0  0  0  0  0
    2.1434   -1.2375    0.0000 C   0  0  0  0  0  0  0  0  0  0  0  0
    1.4289   -1.6500    0.0000 C   0  0  0  0  0  0  0  0  0  0  0  0
  1  2  1  0  0  0  0
  2  3  1  0  0  0  0
  3  4  4  0  0  0  0
  4  5  4  0  0  0  0
  5  6  4  0  0  0  0
  6  7  4  0  0  0  0
  7  8  4  0  0  0  0
  8  9  1  0  0  0  0
  9 10  1  0  0  0  0
 10 11  1  0  0  0  0
 11 12  2  0  0  0  0
 11 13  1  0  0  0  0
  8 14  4  0  0  0  0
 14 15  4  0  0  0  0
 15 16  4  0  0  0  0
  6 16  4  0  0  0  0
 16 17  4  0  0  0  0
  3 17  4  0  0  0  0
M  END

> <ChembankId>
1440

> <SMILES>
COc1ccc2cc(CCC(=O)C)ccc2c1

> <InChI>
1/C15H16O2/c1-11(16)3-4-12-5-6-14-10-15(17-2)8-7-13(14)9-12/h5-10H,3-4H2,1-2H3

$$$$
1441
  Marvin  11101114192D          

 21 23  0  0  0  0            999 V2000
   -1.4289    0.8250    0.0000 C   0  0  0  0  0  0  0  0  0  0  0  0
   -1.4289   -0.0000    0.0000 N   0  0  0  0  0  0  0  0  0  0  0  0
   -0.7145   -0.4125    0.0000 C   0  0  0  0  0  0  0  0  0  0  0  0
   -0.7145   -1.2375    0.0000 C   0  0  0  0  0  0  0  0  0  0  0  0
   -1.4289   -1.6500    0.0000 C   0  0  0  0  0  0  0  0  0  0  0  0
   -2.1434   -1.2375    0.0000 C   0  0  0  0  0  0  0  0  0  0  0  0
   -2.1434   -0.4125    0.0000 C   0  0  0  0  0  0  0  0  0  0  0  0
   -1.4289   -2.4750    0.0000 O   0  0  0  0  0  0  0  0  0  0  0  0
   -0.7145   -2.8875    0.0000 C   0  0  0  0  0  0  0  0  0  0  0  0
   -0.7145   -3.7125    0.0000 C   0  0  0  0  0  0  0  0  0  0  0  0
   -0.0000   -4.1250    0.0000 C   0  0  0  0  0  0  0  0  0  0  0  0
   -0.0000   -4.9500    0.0000 C   0  0  0  0  0  0  0  0  0  0  0  0
   -0.7145   -5.3625    0.0000 C   0  0  0  0  0  0  0  0  0  0  0  0
   -1.4289   -4.9500    0.0000 C   0  0  0  0  0  0  0  0  0  0  0  0
   -1.4289   -4.1250    0.0000 C   0  0  0  0  0  0  0  0  0  0  0  0
   -0.0000   -2.4750    0.0000 C   0  0  0  0  0  0  0  0  0  0  0  0
    0.0000   -1.6500    0.0000 C   0  0  0  0  0  0  0  0  0  0  0  0
    0.7145   -1.2375    0.0000 C   0  0  0  0  0  0  0  0  0  0  0  0
    1.4289   -1.6500    0.0000 C   0  0  0  0  0  0  0  0  0  0  0  0
    1.4289   -2.4750    0.0000 C   0  0  0  0  0  0  0  0  0  0  0  0
    0.7145   -2.8875    0.0000 C   0  0  0  0  0  0  0  0  0  0  0  0
  1  2  1  0  0  0  0
  2  3  1  0  0  0  0
  3  4  1  0  0  0  0
  4  5  1  0  0  0  0
  5  6  1  0  0  0  0
  6  7  1  0  0  0  0
  2  7  1  0  0  0  0
  5  8  1  0  0  0  0
  8  9  1  0  0  0  0
  9 10  1  0  0  0  0
 10 11  4  0  0  0  0
 11 12  4  0  0  0  0
 12 13  4  0  0  0  0
 13 14  4  0  0  0  0
 14 15  4  0  0  0  0
 10 15  4  0  0  0  0
  9 16  1  0  0  0  0
 16 17  4  0  0  0  0
 17 18  4  0  0  0  0
 18 19  4  0  0  0  0
 19 20  4  0  0  0  0
 20 21  4  0  0  0  0
 16 21  4  0  0  0  0
M  END

> <ChembankId>
1441

> <SMILES>
CN1CCC(CC1)OC(c2ccccc2)c3ccccc3

> <InChI>
1/C19H23NO/c1-20-14-12-18(13-15-20)21-19(16-8-4-2-5-9-16)17-10-6-3-7-11-17/h2-11,18-19H,12-15H2,1H3

$$$$
1442
  Marvin  11101114192D          

 10 10  0  0  0  0            999 V2000
    2.9760    1.9462    0.0000 C   0  0  0  0  0  0  0  0  0  0  0  0
    2.1913    1.6913    0.0000 C   0  0  0  0  0  0  0  0  0  0  0  0
    1.5783    2.2433    0.0000 O   0  0  0  0  0  0  0  0  0  0  0  0
    2.0198    0.8843    0.0000 N   0  0  0  0  0  0  0  0  0  0  0  0
    1.2352    0.6294    0.0000 C   0  0  0  0  0  0  0  0  0  0  0  0
    0.9803   -0.1553    0.0000 S   0  0  0  0  0  0  0  0  0  0  0  0
    0.1553   -0.1553    0.0000 C   0  0  0  0  0  0  0  0  0  0  0  0
   -0.0997    0.6294    0.0000 C   0  0  0  0  0  0  0  0  0  0  0  0
    0.5678    1.1143    0.0000 C   0  0  0  0  0  0  0  0  0  0  0  0
    0.5678    1.9393    0.0000 O   0  0  0  0  0  0  0  0  0  0  0  0
  1  2  1  0  0  0  0
  2  3  2  0  0  0  0
  2  4  1  0  0  0  0
  4  5  1  0  0  0  0
  5  6  1  0  0  0  0
  6  7  1  0  0  0  0
  7  8  1  0  0  0  0
  8  9  1  0  0  0  0
  5  9  1  0  0  0  0
  9 10  2  0  0  0  0
M  END

> <ChembankId>
1442

> <SMILES>
CC(=O)NC1SCCC1=O

> <InChI>
1/C6H9NO2S/c1-4(8)7-6-5(9)2-3-10-6/h6H,2-3H2,1H3,(H,7,8)

$$$$
1444
  Marvin  11101114192D          

 15 17  0  0  0  0            999 V2000
    1.8414   -3.7445    0.0000 C   0  0  0  0  0  0  0  0  0  0  0  0
    1.0164   -3.7445    0.0000 C   0  0  0  0  0  0  0  0  0  0  0  0
    0.7615   -2.9599    0.0000 N   0  0  0  0  0  0  0  0  0  0  0  0
    1.4289   -2.4750    0.0000 C   0  0  0  0  0  0  0  0  0  0  0  0
    2.0964   -2.9599    0.0000 N   0  0  0  0  0  0  0  0  0  0  0  0
    1.4289   -1.6500    0.0000 C   0  0  0  0  0  0  0  0  0  0  0  0
    0.7145   -1.2375    0.0000 C   0  0  0  0  0  0  0  0  0  0  0  0
    0.7145   -0.4125    0.0000 C   0  0  0  0  0  0  0  0  0  0  0  0
    1.4289    0.0000    0.0000 C   0  0  0  0  0  0  0  0  0  0  0  0
    2.1434   -0.4125    0.0000 C   0  0  0  0  0  0  0  0  0  0  0  0
    2.8579    0.0000    0.0000 C   0  0  0  0  0  0  0  0  0  0  0  0
    3.5724   -0.4125    0.0000 C   0  0  0  0  0  0  0  0  0  0  0  0
    3.5724   -1.2375    0.0000 C   0  0  0  0  0  0  0  0  0  0  0  0
    2.8579   -1.6500    0.0000 C   0  0  0  0  0  0  0  0  0  0  0  0
    2.1434   -1.2375    0.0000 C   0  0  0  0  0  0  0  0  0  0  0  0
  1  2  1  0  0  0  0
  2  3  1  0  0  0  0
  3  4  2  0  0  0  0
  4  5  1  0  0  0  0
  1  5  1  0  0  0  0
  4  6  1  0  0  0  0
  6  7  1  0  0  0  0
  7  8  1  0  0  0  0
  8  9  1  0  0  0  0
  9 10  1  0  0  0  0
 10 11  4  0  0  0  0
 11 12  4  0  0  0  0
 12 13  4  0  0  0  0
 13 14  4  0  0  0  0
 14 15  4  0  0  0  0
  6 15  1  0  0  0  0
 10 15  4  0  0  0  0
M  END

> <ChembankId>
1444

> <SMILES>
C1CN=C(N1)C2CCCc3ccccc23

> <InChI>
1/C13H16N2/c1-2-6-11-10(4-1)5-3-7-12(11)13-14-8-9-15-13/h1-2,4,6,12H,3,5,7-9H2,(H,14,15)

$$$$
1446
  Marvin  11101114192D          

 34 37  0  0  0  0            999 V2000
    7.1447   -0.8250    0.0000 O   0  0  0  0  0  0  0  0  0  0  0  0
    7.1447    0.0000    0.0000 C   0  0  0  0  0  0  0  0  0  0  0  0
    6.4302    0.4125    0.0000 C   0  0  0  0  0  0  0  0  0  0  0  0
    5.7158    0.0000    0.0000 O   0  0  0  0  0  0  0  0  0  0  0  0
    5.0013    0.4125    0.0000 C   0  0  0  0  0  0  0  0  0  0  0  0
    4.2868    0.0000    0.0000 C   0  0  0  0  0  0  0  0  0  0  0  0
    3.5724    0.4125    0.0000 C   0  0  0  0  0  0  0  0  0  0  0  0
    3.5724    1.2375    0.0000 C   0  0  0  0  0  0  0  0  0  0  0  0
    4.2868    1.6500    0.0000 C   0  0  0  0  0  0  0  0  0  0  0  0
    4.2868    2.4750    0.0000 O   0  0  0  0  0  0  0  0  0  0  0  0
    5.0013    2.8875    0.0000 C   0  0  0  0  0  0  0  0  0  0  0  0
    5.7158    2.4750    0.0000 C   0  0  0  0  0  0  0  0  0  0  0  0
    5.7158    1.6500    0.0000 C   0  0  0  0  0  0  0  0  0  0  0  0
    6.4302    1.2375    0.0000 O   0  0  0  0  0  0  0  0  0  0  0  0
    5.0013    1.2375    0.0000 C   0  0  0  0  0  0  0  0  0  0  0  0
    5.0013    3.7125    0.0000 C   0  0  0  0  0  0  0  0  0  0  0  0
    5.7158    4.1250    0.0000 O   0  0  0  0  0  0  0  0  0  0  0  0
    4.2868    4.1250    0.0000 O   0  0  0  0  0  0  0  0  0  0  0  0
    7.8592    0.4125    0.0000 C   0  0  0  0  0  0  0  0  0  0  0  0
    8.5737    0.0000    0.0000 O   0  0  0  0  0  0  0  0  0  0  0  0
    9.2881    0.4125    0.0000 C   0  0  0  0  0  0  0  0  0  0  0  0
    9.2881    1.2375    0.0000 C   0  0  0  0  0  0  0  0  0  0  0  0
   10.0026    1.6500    0.0000 C   0  0  0  0  0  0  0  0  0  0  0  0
   10.7171    1.2375    0.0000 C   0  0  0  0  0  0  0  0  0  0  0  0
   10.7171    0.4125    0.0000 C   0  0  0  0  0  0  0  0  0  0  0  0
   11.4315    0.0000    0.0000 O   0  0  0  0  0  0  0  0  0  0  0  0
   11.4315   -0.8250    0.0000 C   0  0  0  0  0  0  0  0  0  0  0  0
   10.7171   -1.2375    0.0000 C   0  0  0  0  0  0  0  0  0  0  0  0
   10.0026   -0.8250    0.0000 C   0  0  0  0  0  0  0  0  0  0  0  0
    9.2881   -1.2375    0.0000 O   0  0  0  0  0  0  0  0  0  0  0  0
   10.0026    0.0000    0.0000 C   0  0  0  0  0  0  0  0  0  0  0  0
   12.1460   -1.2375    0.0000 C   0  0  0  0  0  0  0  0  0  0  0  0
   12.8605   -0.8250    0.0000 O   0  0  0  0  0  0  0  0  0  0  0  0
   12.1460   -2.0625    0.0000 O   0  0  0  0  0  0  0  0  0  0  0  0
  1  2  1  0  0  0  0
  2  3  1  0  0  0  0
  3  4  1  0  0  0  0
  4  5  1  0  0  0  0
  5  6  4  0  0  0  0
  6  7  4  0  0  0  0
  7  8  4  0  0  0  0
  8  9  4  0  0  0  0
  9 10  4  0  0  0  0
 10 11  4  0  0  0  0
 11 12  4  0  0  0  0
 12 13  4  0  0  0  0
 13 14  2  0  0  0  0
 13 15  4  0  0  0  0
  5 15  4  0  0  0  0
  9 15  4  0  0  0  0
 11 16  1  0  0  0  0
 16 17  2  0  0  0  0
 16 18  1  0  0  0  0
  2 19  1  0  0  0  0
 19 20  1  0  0  0  0
 20 21  1  0  0  0  0
 21 22  4  0  0  0  0
 22 23  4  0  0  0  0
 23 24  4  0  0  0  0
 24 25  4  0  0  0  0
 25 26  4  0  0  0  0
 26 27  4  0  0  0  0
 27 28  4  0  0  0  0
 28 29  4  0  0  0  0
 29 30  2  0  0  0  0
 29 31  4  0  0  0  0
 21 31  4  0  0  0  0
 25 31  4  0  0  0  0
 27 32  1  0  0  0  0
 32 33  2  0  0  0  0
 32 34  1  0  0  0  0
M  END

> <ChembankId>
1446

> <SMILES>
OC(COc1cccc2oc(cc(=O)c12)C(=O)O)COc3cccc4oc(cc(=O)c34)C(=O)O

> <InChI>
1/C23H16O11/c24-11(9-31-14-3-1-5-16-20(14)12(25)7-18(33-16)22(27)28)10-32-15-4-2-6-17-21(15)13(26)8-19(34-17)23(29)30/h1-8,11,24H,9-10H2,(H,27,28)(H,29,30)

$$$$
1449
  Marvin  11101114192D          

 13 14  0  0  1  0            999 V2000
    0.7145   -0.4125    0.0000 C   0  0  0  0  0  0  0  0  0  0  0  0
    0.7145   -1.2375    0.0000 N   0  0  0  0  0  0  0  0  0  0  0  0
    1.3819   -1.7224    0.0000 C   0  0  1  0  0  0  0  0  0  0  0  0
    1.1270   -2.5070    0.0000 C   0  0  0  0  0  0  0  0  0  0  0  0
    0.3020   -2.5070    0.0000 C   0  0  0  0  0  0  0  0  0  0  0  0
    0.0470   -1.7224    0.0000 C   0  0  0  0  0  0  0  0  0  0  0  0
   -0.7376   -1.4675    0.0000 O   0  0  0  0  0  0  0  0  0  0  0  0
    2.1665   -1.4675    0.0000 C   0  0  0  0  0  0  0  0  0  0  0  0
    2.3381   -0.6605    0.0000 C   0  0  0  0  0  0  0  0  0  0  0  0
    3.1227   -0.4056    0.0000 C   0  0  0  0  0  0  0  0  0  0  0  0
    3.7358   -0.9576    0.0000 C   0  0  0  0  0  0  0  0  0  0  0  0
    3.5642   -1.7646    0.0000 N   0  0  0  0  0  0  0  0  0  0  0  0
    2.7796   -2.0195    0.0000 C   0  0  0  0  0  0  0  0  0  0  0  0
  1  2  1  0  0  0  0
  2  3  1  0  0  0  0
  3  4  1  0  0  0  0
  4  5  1  0  0  0  0
  5  6  1  0  0  0  0
  2  6  1  0  0  0  0
  6  7  2  0  0  0  0
  3  8  1  6  0  0  0
  8  9  4  0  0  0  0
  9 10  4  0  0  0  0
 10 11  4  0  0  0  0
 11 12  4  0  0  0  0
 12 13  4  0  0  0  0
  8 13  4  0  0  0  0
M  END

> <ChembankId>
1449

> <SMILES>
CN1[C@@H](CCC1=O)c2cccnc2

> <InChI>
1/C10H12N2O/c1-12-9(4-5-10(12)13)8-3-2-6-11-7-8/h2-3,6-7,9H,4-5H2,1H3

$$$$
1451
  Marvin  11101114192D          

 32 35  0  0  1  0            999 V2000
    2.1434   -1.2375    0.0000 C   0  0  0  0  0  0  0  0  0  0  0  0
    2.8579   -1.6500    0.0000 N   0  0  0  0  0  0  0  0  0  0  0  0
    3.5724   -1.2375    0.0000 C   0  0  0  0  0  0  0  0  0  0  0  0
    2.8579   -2.4750    0.0000 C   0  0  1  0  0  0  0  0  0  0  0  0
    3.5724   -2.8875    0.0000 C   0  0  2  0  0  0  0  0  0  0  0  0
    4.2868   -2.4750    0.0000 C   0  0  0  0  0  0  0  0  0  0  0  0
    5.0013   -2.8875    0.0000 C   0  0  2  0  0  0  0  0  0  0  0  0
    5.7158   -2.4750    0.0000 C   0  0  2  0  0  0  0  0  0  0  0  0
    5.7158   -1.6500    0.0000 O   0  0  0  0  0  0  0  0  0  0  0  0
    6.4302   -2.8875    0.0000 C   0  0  0  0  0  0  0  0  0  0  0  0
    7.1447   -2.4750    0.0000 C   0  0  0  0  0  0  0  0  0  0  0  0
    7.1447   -1.6500    0.0000 Cl  0  0  0  0  0  0  0  0  0  0  0  0
    7.8592   -2.8875    0.0000 C   0  0  0  0  0  0  0  0  0  0  0  0
    7.8592   -3.7125    0.0000 C   0  0  0  0  0  0  0  0  0  0  0  0
    7.1447   -4.1250    0.0000 C   0  0  0  0  0  0  0  0  0  0  0  0
    7.1447   -4.9500    0.0000 O   0  0  0  0  0  0  0  0  0  0  0  0
    6.4302   -3.7125    0.0000 C   0  0  0  0  0  0  0  0  0  0  0  0
    5.7158   -4.1250    0.0000 C   0  0  0  0  0  0  0  0  0  0  0  0
    5.7158   -4.9500    0.0000 O   0  0  0  0  0  0  0  0  0  0  0  0
    5.0013   -3.7125    0.0000 C   0  0  0  0  0  0  0  0  0  0  0  0
    4.2868   -4.1250    0.0000 C   0  0  0  0  0  0  0  0  0  0  0  0
    4.2868   -4.9500    0.0000 O   0  0  0  0  0  0  0  0  0  0  0  0
    3.5724   -3.7125    0.0000 C   0  0  1  0  0  0  0  0  0  0  0  0
    3.5724   -4.5375    0.0000 O   0  0  0  0  0  0  0  0  0  0  0  0
    2.8579   -4.1250    0.0000 C   0  0  0  0  0  0  0  0  0  0  0  0
    2.8579   -4.9500    0.0000 O   0  0  0  0  0  0  0  0  0  0  0  0
    2.1434   -3.7125    0.0000 C   0  0  0  0  0  0  0  0  0  0  0  0
    2.1434   -2.8875    0.0000 C   0  0  0  0  0  0  0  0  0  0  0  0
    1.4289   -2.4750    0.0000 O   0  0  0  0  0  0  0  0  0  0  0  0
    1.4289   -4.1250    0.0000 C   0  0  0  0  0  0  0  0  0  0  0  0
    1.4289   -4.9500    0.0000 O   0  0  0  0  0  0  0  0  0  0  0  0
    0.7145   -3.7125    0.0000 N   0  0  0  0  0  0  0  0  0  0  0  0
  1  2  1  0  0  0  0
  2  3  1  0  0  0  0
  4  2  1  1  0  0  0
  4  5  1  0  0  0  0
  5  6  1  6  0  0  0
  7  6  1  6  0  0  0
  7  8  1  0  0  0  0
  8  9  1  6  0  0  0
  8 10  1  0  0  0  0
 10 11  4  0  0  0  0
 11 12  1  0  0  0  0
 11 13  4  0  0  0  0
 13 14  4  0  0  0  0
 14 15  4  0  0  0  0
 15 16  1  0  0  0  0
 15 17  4  0  0  0  0
 10 17  4  0  0  0  0
 17 18  1  0  0  0  0
 18 19  2  0  0  0  0
 18 20  1  0  0  0  0
  7 20  1  0  0  0  0
 20 21  2  0  0  0  0
 21 22  1  0  0  0  0
 21 23  1  0  0  0  0
  5 23  1  0  0  0  0
 23 24  1  1  0  0  0
 23 25  1  0  0  0  0
 25 26  2  0  0  0  0
 25 27  1  0  0  0  0
 27 28  2  0  0  0  0
  4 28  1  0  0  0  0
 28 29  1  0  0  0  0
 27 30  1  0  0  0  0
 30 31  2  0  0  0  0
 30 32  1  0  0  0  0
M  END

> <ChembankId>
1451

> <SMILES>
CN(C)[C@H]1[C@@H]2C[C@@H]3[C@H](O)c4c(Cl)ccc(O)c4C(=O)C3=C(O)[C@]2(O)C(=O)C(=C1O)C(=O)N

> <InChI>
1/C21H21ClN2O8/c1-24(2)14-7-5-6-10(16(27)12-9(25)4-3-8(22)11(12)15(6)26)18(29)21(7,32)19(30)13(17(14)28)20(23)31/h3-4,6-7,14-15,25-26,28-29,32H,5H2,1-2H3,(H2,23,31)

$$$$
1453
  Marvin  11101114192D          

 15 16  0  0  0  0            999 V2000
    2.0367    2.0009    0.0000 C   0  0  0  0  0  0  0  0  0  0  0  0
    2.7512    2.4134    0.0000 N   0  0  0  0  0  0  0  0  0  0  0  0
    2.7512    3.2384    0.0000 C   0  0  0  0  0  0  0  0  0  0  0  0
    3.4656    3.6509    0.0000 C   0  0  0  0  0  0  0  0  0  0  0  0
    4.1801    3.2384    0.0000 C   0  0  0  0  0  0  0  0  0  0  0  0
    4.1801    2.4134    0.0000 N   0  0  0  0  0  0  0  0  0  0  0  0
    3.4656    2.0009    0.0000 C   0  0  0  0  0  0  0  0  0  0  0  0
    3.4656    1.1759    0.0000 C   0  0  0  0  0  0  0  0  0  0  0  0
    4.1801    0.7634    0.0000 C   0  0  0  0  0  0  0  0  0  0  0  0
    4.1801   -0.0616    0.0000 C   0  0  0  0  0  0  0  0  0  0  0  0
    4.8476   -0.5465    0.0000 S   0  0  0  0  0  0  0  0  0  0  0  0
    4.5926   -1.3312    0.0000 C   0  0  0  0  0  0  0  0  0  0  0  0
    3.7676   -1.3312    0.0000 C   0  0  0  0  0  0  0  0  0  0  0  0
    3.5127   -0.5465    0.0000 C   0  0  0  0  0  0  0  0  0  0  0  0
    2.7281   -0.2916    0.0000 C   0  0  0  0  0  0  0  0  0  0  0  0
  1  2  1  0  0  0  0
  2  3  1  0  0  0  0
  3  4  1  0  0  0  0
  4  5  1  0  0  0  0
  5  6  1  0  0  0  0
  6  7  2  0  0  0  0
  2  7  1  0  0  0  0
  7  8  1  0  0  0  0
  8  9  2  0  0  0  0
  9 10  1  0  0  0  0
 10 11  4  0  0  0  0
 11 12  4  0  0  0  0
 12 13  4  0  0  0  0
 13 14  4  0  0  0  0
 10 14  4  0  0  0  0
 14 15  1  0  0  0  0
M  END

> <ChembankId>
1453

> <SMILES>
CN1CCCN=C1/C=C/c2sccc2C

> <InChI>
1/C12H16N2S/c1-10-6-9-15-11(10)4-5-12-13-7-3-8-14(12)2/h4-6,9H,3,7-8H2,1-2H3

$$$$
1454
  Marvin  11101114192D          

 55 62  0  0  1  0            999 V2000
    3.5693    7.3004    0.0000 C   0  0  0  0  0  0  0  0  0  0  0  0
    4.1011    6.6697    0.0000 C   0  0  1  0  0  0  0  0  0  0  0  0
    4.9132    6.8149    0.0000 O   0  0  0  0  0  0  0  0  0  0  0  0
    5.4450    6.1842    0.0000 C   0  0  2  0  0  0  0  0  0  0  0  0
    5.1647    5.4083    0.0000 C   0  0  0  0  0  0  0  0  0  0  0  0
    4.3526    5.2631    0.0000 C   0  0  2  0  0  0  0  0  0  0  0  0
    4.0723    4.4872    0.0000 O   0  0  0  0  0  0  0  0  0  0  0  0
    3.8208    5.8938    0.0000 C   0  0  2  0  0  0  0  0  0  0  0  0
    3.0087    5.7486    0.0000 O   0  0  0  0  0  0  0  0  0  0  0  0
    6.2572    6.3295    0.0000 O   0  0  0  0  0  0  0  0  0  0  0  0
    6.7890    5.6987    0.0000 C   0  0  2  0  0  0  0  0  0  0  0  0
    7.6011    5.8440    0.0000 C   0  0  1  0  0  0  0  0  0  0  0  0
    7.8814    6.6199    0.0000 C   0  0  0  0  0  0  0  0  0  0  0  0
    8.1329    5.2133    0.0000 O   0  0  0  0  0  0  0  0  0  0  0  0
    7.8526    4.4373    0.0000 C   0  0  2  0  0  0  0  0  0  0  0  0
    7.0405    4.2921    0.0000 C   0  0  0  0  0  0  0  0  0  0  0  0
    6.5087    4.9228    0.0000 C   0  0  2  0  0  0  0  0  0  0  0  0
    5.6966    4.7776    0.0000 O   0  0  0  0  0  0  0  0  0  0  0  0
    8.3844    3.8066    0.0000 O   0  0  0  0  0  0  0  0  0  0  0  0
    8.1041    3.0307    0.0000 C   0  0  2  0  0  0  0  0  0  0  0  0
    8.6360    2.4000    0.0000 C   0  0  1  0  0  0  0  0  0  0  0  0
    9.4481    2.5452    0.0000 C   0  0  0  0  0  0  0  0  0  0  0  0
    8.3557    1.6241    0.0000 O   0  0  0  0  0  0  0  0  0  0  0  0
    7.5435    1.4789    0.0000 C   0  0  2  0  0  0  0  0  0  0  0  0
    7.0117    2.1096    0.0000 C   0  0  0  0  0  0  0  0  0  0  0  0
    7.2920    2.8855    0.0000 C   0  0  2  0  0  0  0  0  0  0  0  0
    6.7602    3.5162    0.0000 O   0  0  0  0  0  0  0  0  0  0  0  0
    7.2632    0.7029    0.0000 O   0  0  0  0  0  0  0  0  0  0  0  0
    6.4511    0.5577    0.0000 C   0  0  1  0  0  0  0  0  0  0  0  0
    6.1708   -0.2182    0.0000 C   0  0  0  0  0  0  0  0  0  0  0  0
    5.3587   -0.3634    0.0000 C   0  0  0  0  0  0  0  0  0  0  0  0
    4.8269    0.2673    0.0000 C   0  0  1  0  0  0  0  0  0  0  0  0
    4.5466   -0.5086    0.0000 C   0  0  0  0  0  0  0  0  0  0  0  0
    5.1072    1.0432    0.0000 C   0  0  2  0  0  0  0  0  0  0  0  0
    4.5754    1.6739    0.0000 C   0  0  0  0  0  0  0  0  0  0  0  0
    3.7633    1.5287    0.0000 C   0  0  0  0  0  0  0  0  0  0  0  0
    3.4830    0.7528    0.0000 C   0  0  0  0  0  0  0  0  0  0  0  0
    4.0148    0.1221    0.0000 C   0  0  0  0  0  0  0  0  0  0  0  0
    3.7345   -0.6539    0.0000 C   0  0  0  0  0  0  0  0  0  0  0  0
    2.9224   -0.7991    0.0000 C   0  0  1  0  0  0  0  0  0  0  0  0
    2.6421   -1.5750    0.0000 O   0  0  0  0  0  0  0  0  0  0  0  0
    2.3905   -0.1684    0.0000 C   0  0  2  0  0  0  0  0  0  0  0  0
    2.0307   -0.9107    0.0000 C   0  0  0  0  0  0  0  0  0  0  0  0
    1.5660   -0.1416    0.0000 C   0  0  2  0  0  0  0  0  0  0  0  0
    1.3367    0.6509    0.0000 C   0  0  0  0  0  0  0  0  0  0  0  0
    2.0195    1.1139    0.0000 C   0  0  0  0  0  0  0  0  0  0  0  0
    2.6708    0.6076    0.0000 C   0  0  2  0  0  0  0  0  0  0  0  0
    2.8685    1.4085    0.0000 O   0  0  0  0  0  0  0  0  0  0  0  0
    1.0596   -0.7929    0.0000 C   0  0  0  0  0  0  0  0  0  0  0  0
    1.2889   -1.5854    0.0000 C   0  0  0  0  0  0  0  0  0  0  0  0
    0.6061   -2.0484    0.0000 C   0  0  0  0  0  0  0  0  0  0  0  0
    0.5793   -2.8729    0.0000 O   0  0  0  0  0  0  0  0  0  0  0  0
   -0.0452   -1.5420    0.0000 O   0  0  0  0  0  0  0  0  0  0  0  0
    0.2351   -0.7661    0.0000 C   0  0  0  0  0  0  0  0  0  0  0  0
    5.9193    1.1884    0.0000 C   0  0  0  0  0  0  0  0  0  0  0  0
  2  1  1  1  0  0  0
  2  3  1  0  0  0  0
  3  4  1  0  0  0  0
  4  5  1  0  0  0  0
  5  6  1  0  0  0  0
  6  7  1  6  0  0  0
  6  8  1  0  0  0  0
  2  8  1  0  0  0  0
  8  9  1  6  0  0  0
  4 10  1  1  0  0  0
 11 10  1  6  0  0  0
 11 12  1  0  0  0  0
 12 13  1  1  0  0  0
 12 14  1  0  0  0  0
 14 15  1  0  0  0  0
 15 16  1  0  0  0  0
 16 17  1  0  0  0  0
 11 17  1  0  0  0  0
 17 18  1  6  0  0  0
 15 19  1  1  0  0  0
 20 19  1  6  0  0  0
 20 21  1  0  0  0  0
 21 22  1  1  0  0  0
 21 23  1  0  0  0  0
 23 24  1  0  0  0  0
 24 25  1  0  0  0  0
 25 26  1  0  0  0  0
 20 26  1  0  0  0  0
 26 27  1  6  0  0  0
 24 28  1  1  0  0  0
 29 28  1  1  0  0  0
 29 30  1  0  0  0  0
 30 31  1  0  0  0  0
 31 32  1  0  0  0  0
 32 33  1  1  0  0  0
 32 34  1  0  0  0  0
 34 35  1  0  0  0  0
 35 36  1  0  0  0  0
 36 37  1  0  0  0  0
 37 38  1  0  0  0  0
 32 38  1  0  0  0  0
 38 39  1  0  0  0  0
 39 40  1  0  0  0  0
 40 41  1  1  0  0  0
 40 42  1  0  0  0  0
 42 43  1  1  0  0  0
 42 44  1  0  0  0  0
 44 45  1  0  0  0  0
 45 46  1  0  0  0  0
 46 47  1  0  0  0  0
 37 47  1  0  0  0  0
 42 47  1  0  0  0  0
 47 48  1  1  0  0  0
 44 49  1  1  0  0  0
 49 50  2  0  0  0  0
 50 51  1  0  0  0  0
 51 52  2  0  0  0  0
 51 53  1  0  0  0  0
 53 54  1  0  0  0  0
 49 54  1  0  0  0  0
 34 55  1  6  0  0  0
 29 55  1  0  0  0  0
M  END

> <ChembankId>
1454

> <SMILES>
C[C@H]1O[C@H](C[C@H](O)[C@@H]1O)O[C@@H]2[C@@H](C)O[C@H](C[C@@H]2O)O[C@@H]3[C@@H](C)O[C@H](C[C@@H]3O)O[C@H]4CC[C@@]5(C)[C@H](CCC6C5C[C@@H](O)[C@]7(C)[C@H](CC[C@]67O)C8=CC(=O)OC8)C4

> <InChI>
1/C41H64O14/c1-19-36(47)28(42)15-34(50-19)54-38-21(3)52-35(17-30(38)44)55-37-20(2)51-33(16-29(37)43)53-24-8-10-39(4)23(13-24)6-7-26-27(39)14-31(45)40(5)25(9-11-41(26,40)48)22-12-32(46)49-18-22/h12,19-21,23-31,33-38,42-45,47-48H,6-11,13-18H2,1-5H3

$$$$
3045683
  Marvin  11101114192D          

 27 27  0  0  0  0            999 V2000
   -1.6585   -0.7475    0.0000 C   0  0  0  0  0  0  0  0  0  0  0  0
   -2.1434   -0.0801    0.0000 N   0  3  0  0  0  0  0  0  0  0  0  0
   -1.4289    0.3324    0.0000 C   0  0  0  0  0  0  0  0  0  0  0  0
   -0.7145   -0.0801    0.0000 C   0  0  0  0  0  0  0  0  0  0  0  0
    0.0000    0.3324    0.0000 C   0  0  0  0  0  0  0  0  0  0  0  0
    0.7145   -0.0801    0.0000 C   0  0  0  0  0  0  0  0  0  0  0  0
    1.4289    0.3324    0.0000 C   0  0  0  0  0  0  0  0  0  0  0  0
    2.1434   -0.0801    0.0000 N   0  3  0  0  0  0  0  0  0  0  0  0
    1.6585   -0.7475    0.0000 C   0  0  0  0  0  0  0  0  0  0  0  0
    2.4790    0.6736    0.0000 C   0  0  0  0  0  0  0  0  0  0  0  0
    3.2995    0.5873    0.0000 C   0  0  0  0  0  0  0  0  0  0  0  0
    3.4710   -0.2196    0.0000 C   0  0  0  0  0  0  0  0  0  0  0  0
    2.7565   -0.6321    0.0000 C   0  0  0  0  0  0  0  0  0  0  0  0
   -2.7565   -0.6321    0.0000 C   0  0  0  0  0  0  0  0  0  0  0  0
   -3.4710   -0.2196    0.0000 C   0  0  0  0  0  0  0  0  0  0  0  0
   -3.2995    0.5873    0.0000 C   0  0  0  0  0  0  0  0  0  0  0  0
   -2.4790    0.6736    0.0000 C   0  0  0  0  0  0  0  0  0  0  0  0
    7.6180    1.0313    0.0000 O   0  0  0  0  0  0  0  0  0  0  0  0
    7.6180    0.2063    0.0000 C   0  0  0  0  0  0  0  0  0  0  0  0
    6.9035   -0.2062    0.0000 C   0  0  0  0  0  0  0  0  0  0  0  0
    6.9035   -1.0312    0.0000 O   0  0  0  0  0  0  0  0  0  0  0  0
    6.1890    0.2063    0.0000 C   0  0  0  0  0  0  0  0  0  0  0  0
    5.4745   -0.2062    0.0000 O   0  0  0  0  0  0  0  0  0  0  0  0
    6.1890    1.0313    0.0000 O   0  0  0  0  0  0  0  0  0  0  0  0
    8.3324   -0.2063    0.0000 C   0  0  0  0  0  0  0  0  0  0  0  0
    9.0469    0.2062    0.0000 O   0  0  0  0  0  0  0  0  0  0  0  0
    8.3324   -1.0313    0.0000 O   0  0  0  0  0  0  0  0  0  0  0  0
  1  2  1  0  0  0  0
  2  3  1  0  0  0  0
  3  4  1  0  0  0  0
  4  5  1  0  0  0  0
  5  6  1  0  0  0  0
  6  7  1  0  0  0  0
  7  8  1  0  0  0  0
  8  9  1  0  0  0  0
  8 10  1  0  0  0  0
 10 11  1  0  0  0  0
 11 12  1  0  0  0  0
 12 13  1  0  0  0  0
  8 13  1  0  0  0  0
  2 14  1  0  0  0  0
 14 15  1  0  0  0  0
 15 16  1  0  0  0  0
 16 17  1  0  0  0  0
  2 17  1  0  0  0  0
 18 19  1  0  0  0  0
 19 20  1  0  0  0  0
 20 21  1  0  0  0  0
 20 22  1  0  0  0  0
 22 23  2  0  0  0  0
 22 24  1  0  0  0  0
 19 25  1  0  0  0  0
 25 26  2  0  0  0  0
 25 27  1  0  0  0  0
M  CHG  2   2   1   8   1
M  END

> <ChembankId>
3045683

> <SMILES>
C[N+]1(CCCCC[N+]2(C)CCCC2)CCCC1.OC(C(O)C(=O)O)C(=O)O

> <InChI>
1/C15H32N2.C4H6O6/c1-16(12-6-7-13-16)10-4-3-5-11-17(2)14-8-9-15-17;5-1(3(7)8)2(6)4(9)10/h3-15H2,1-2H3;1-2,5-6H,(H,7,8)(H,9,10)/q+2;

$$$$
1465
  Marvin  11101114192D          

 27 30  0  0  0  0            999 V2000
   -2.8579    4.9500    0.0000 O   0  0  0  0  0  0  0  0  0  0  0  0
   -2.1434    4.5375    0.0000 C   0  0  0  0  0  0  0  0  0  0  0  0
   -1.4289    4.9500    0.0000 C   0  0  0  0  0  0  0  0  0  0  0  0
   -0.7145    4.5375    0.0000 N   0  0  0  0  0  0  0  0  0  0  0  0
   -0.0000    4.9500    0.0000 C   0  0  0  0  0  0  0  0  0  0  0  0
    0.7145    4.5375    0.0000 C   0  0  0  0  0  0  0  0  0  0  0  0
    0.7145    3.7125    0.0000 N   0  0  0  0  0  0  0  0  0  0  0  0
    1.4289    3.3000    0.0000 C   0  0  0  0  0  0  0  0  0  0  0  0
    1.4289    2.4750    0.0000 C   0  0  0  0  0  0  0  0  0  0  0  0
    2.1434    2.0625    0.0000 C   0  0  0  0  0  0  0  0  0  0  0  0
    2.1434    1.2375    0.0000 N   0  0  0  0  0  0  0  0  0  0  0  0
    2.8579    0.8250    0.0000 C   0  0  0  0  0  0  0  0  0  0  0  0
    3.5724    1.2375    0.0000 C   0  0  0  0  0  0  0  0  0  0  0  0
    4.2868    0.8250    0.0000 C   0  0  0  0  0  0  0  0  0  0  0  0
    4.2868   -0.0000    0.0000 C   0  0  0  0  0  0  0  0  0  0  0  0
    3.5724   -0.4125    0.0000 C   0  0  0  0  0  0  0  0  0  0  0  0
    2.8579    0.0000    0.0000 C   0  0  0  0  0  0  0  0  0  0  0  0
    2.1434   -0.4125    0.0000 S   0  0  0  0  0  0  0  0  0  0  0  0
    1.4289    0.0000    0.0000 C   0  0  0  0  0  0  0  0  0  0  0  0
    0.7145   -0.4125    0.0000 C   0  0  0  0  0  0  0  0  0  0  0  0
    0.0000    0.0000    0.0000 C   0  0  0  0  0  0  0  0  0  0  0  0
    0.0000    0.8250    0.0000 C   0  0  0  0  0  0  0  0  0  0  0  0
   -0.7145    1.2375    0.0000 Cl  0  0  0  0  0  0  0  0  0  0  0  0
    0.7145    1.2375    0.0000 C   0  0  0  0  0  0  0  0  0  0  0  0
    1.4289    0.8250    0.0000 C   0  0  0  0  0  0  0  0  0  0  0  0
   -0.0000    3.3000    0.0000 C   0  0  0  0  0  0  0  0  0  0  0  0
   -0.7145    3.7125    0.0000 C   0  0  0  0  0  0  0  0  0  0  0  0
  1  2  1  0  0  0  0
  2  3  1  0  0  0  0
  3  4  1  0  0  0  0
  4  5  1  0  0  0  0
  5  6  1  0  0  0  0
  6  7  1  0  0  0  0
  7  8  1  0  0  0  0
  8  9  1  0  0  0  0
  9 10  1  0  0  0  0
 10 11  1  0  0  0  0
 11 12  1  0  0  0  0
 12 13  4  0  0  0  0
 13 14  4  0  0  0  0
 14 15  4  0  0  0  0
 15 16  4  0  0  0  0
 16 17  4  0  0  0  0
 12 17  4  0  0  0  0
 17 18  1  0  0  0  0
 18 19  1  0  0  0  0
 19 20  4  0  0  0  0
 20 21  4  0  0  0  0
 21 22  4  0  0  0  0
 22 23  1  0  0  0  0
 22 24  4  0  0  0  0
 24 25  4  0  0  0  0
 11 25  1  0  0  0  0
 19 25  4  0  0  0  0
  7 26  1  0  0  0  0
 26 27  1  0  0  0  0
  4 27  1  0  0  0  0
M  END

> <ChembankId>
1465

> <SMILES>
OCCN1CCN(CCCN2c3ccccc3Sc4ccc(Cl)cc24)CC1

> <InChI>
1/C21H26ClN3OS/c22-17-6-7-21-19(16-17)25(18-4-1-2-5-20(18)27-21)9-3-8-23-10-12-24(13-11-23)14-15-26/h1-2,4-7,16,26H,3,8-15H2

$$$$
1467
  Marvin  11101114192D          

 21 22  0  0  0  0            999 V2000
   -5.0013   -1.2375    0.0000 C   0  0  0  0  0  0  0  0  0  0  0  0
   -4.2868   -1.6500    0.0000 C   0  0  0  0  0  0  0  0  0  0  0  0
   -3.5724   -1.2375    0.0000 C   0  0  0  0  0  0  0  0  0  0  0  0
   -2.8579   -1.6500    0.0000 C   0  0  0  0  0  0  0  0  0  0  0  0
   -2.1434   -1.2375    0.0000 O   0  0  0  0  0  0  0  0  0  0  0  0
   -1.4289   -1.6500    0.0000 C   0  0  0  0  0  0  0  0  0  0  0  0
   -0.7145   -1.2375    0.0000 C   0  0  0  0  0  0  0  0  0  0  0  0
    0.0000   -1.6500    0.0000 C   0  0  0  0  0  0  0  0  0  0  0  0
    0.0000   -2.4750    0.0000 C   0  0  0  0  0  0  0  0  0  0  0  0
    0.7145   -2.8875    0.0000 O   0  0  0  0  0  0  0  0  0  0  0  0
    1.4289   -2.4750    0.0000 C   0  0  0  0  0  0  0  0  0  0  0  0
    2.1434   -2.8875    0.0000 C   0  0  0  0  0  0  0  0  0  0  0  0
    2.8579   -2.4750    0.0000 C   0  0  0  0  0  0  0  0  0  0  0  0
    3.5724   -2.8875    0.0000 N   0  0  0  0  0  0  0  0  0  0  0  0
    4.2868   -2.4750    0.0000 C   0  0  0  0  0  0  0  0  0  0  0  0
    5.0013   -2.8875    0.0000 C   0  0  0  0  0  0  0  0  0  0  0  0
    5.0013   -3.7125    0.0000 O   0  0  0  0  0  0  0  0  0  0  0  0
    4.2868   -4.1250    0.0000 C   0  0  0  0  0  0  0  0  0  0  0  0
    3.5724   -3.7125    0.0000 C   0  0  0  0  0  0  0  0  0  0  0  0
   -0.7145   -2.8875    0.0000 C   0  0  0  0  0  0  0  0  0  0  0  0
   -1.4289   -2.4750    0.0000 C   0  0  0  0  0  0  0  0  0  0  0  0
  1  2  1  0  0  0  0
  2  3  1  0  0  0  0
  3  4  1  0  0  0  0
  4  5  1  0  0  0  0
  5  6  1  0  0  0  0
  6  7  4  0  0  0  0
  7  8  4  0  0  0  0
  8  9  4  0  0  0  0
  9 10  1  0  0  0  0
 10 11  1  0  0  0  0
 11 12  1  0  0  0  0
 12 13  1  0  0  0  0
 13 14  1  0  0  0  0
 14 15  1  0  0  0  0
 15 16  1  0  0  0  0
 16 17  1  0  0  0  0
 17 18  1  0  0  0  0
 18 19  1  0  0  0  0
 14 19  1  0  0  0  0
  9 20  4  0  0  0  0
 20 21  4  0  0  0  0
  6 21  4  0  0  0  0
M  END

> <ChembankId>
1467

> <SMILES>
CCCCOc1ccc(OCCCN2CCOCC2)cc1

> <InChI>
1/C17H27NO3/c1-2-3-12-20-16-5-7-17(8-6-16)21-13-4-9-18-10-14-19-15-11-18/h5-8H,2-4,9-15H2,1H3

$$$$
1469
  Marvin  11101114192D          

 17 18  0  0  0  0            999 V2000
   -0.0980   -0.5558    0.0000 C   0  0  0  0  0  0  0  0  0  0  0  0
    0.7145   -0.4125    0.0000 C   0  0  0  0  0  0  0  0  0  0  0  0
    1.2448   -1.0445    0.0000 C   0  0  0  0  0  0  0  0  0  0  0  0
    1.9592   -1.4570    0.0000 C   0  0  0  0  0  0  0  0  0  0  0  0
    1.9592   -2.2820    0.0000 C   0  0  0  0  0  0  0  0  0  0  0  0
    1.2448   -2.6945    0.0000 C   0  0  0  0  0  0  0  0  0  0  0  0
    1.2448   -3.5195    0.0000 O   0  0  0  0  0  0  0  0  0  0  0  0
    0.5303   -2.2820    0.0000 N   0  0  0  0  0  0  0  0  0  0  0  0
    0.5303   -1.4570    0.0000 C   0  0  0  0  0  0  0  0  0  0  0  0
   -0.1842   -1.0445    0.0000 O   0  0  0  0  0  0  0  0  0  0  0  0
    1.7751   -0.4125    0.0000 C   0  0  0  0  0  0  0  0  0  0  0  0
    1.4929    0.3627    0.0000 C   0  0  0  0  0  0  0  0  0  0  0  0
    2.0232    0.9947    0.0000 C   0  0  0  0  0  0  0  0  0  0  0  0
    2.8357    0.8515    0.0000 C   0  0  0  0  0  0  0  0  0  0  0  0
    3.3660    1.4835    0.0000 N   0  0  0  0  0  0  0  0  0  0  0  0
    3.1178    0.0762    0.0000 C   0  0  0  0  0  0  0  0  0  0  0  0
    2.5875   -0.5558    0.0000 C   0  0  0  0  0  0  0  0  0  0  0  0
  1  2  1  0  0  0  0
  2  3  1  0  0  0  0
  3  4  1  0  0  0  0
  4  5  1  0  0  0  0
  5  6  1  0  0  0  0
  6  7  2  0  0  0  0
  6  8  1  0  0  0  0
  8  9  1  0  0  0  0
  3  9  1  0  0  0  0
  9 10  2  0  0  0  0
  3 11  1  0  0  0  0
 11 12  4  0  0  0  0
 12 13  4  0  0  0  0
 13 14  4  0  0  0  0
 14 15  1  0  0  0  0
 14 16  4  0  0  0  0
 16 17  4  0  0  0  0
 11 17  4  0  0  0  0
M  END

> <ChembankId>
1469

> <SMILES>
CCC1(CCC(=O)NC1=O)c2ccc(N)cc2

> <InChI>
1/C13H16N2O2/c1-2-13(8-7-11(16)15-12(13)17)9-3-5-10(14)6-4-9/h3-6H,2,7-8,14H2,1H3,(H,15,16,17)

$$$$
1471
  Marvin  11101114192D          

 17 18  0  0  0  0            999 V2000
   -0.7145   -2.8875    0.0000 C   0  0  0  0  0  0  0  0  0  0  0  0
    0.0000   -2.4750    0.0000 N   0  0  0  0  0  0  0  0  0  0  0  0
    0.0000   -1.6500    0.0000 C   0  0  0  0  0  0  0  0  0  0  0  0
   -0.7145   -1.2375    0.0000 C   0  0  0  0  0  0  0  0  0  0  0  0
   -1.4289   -1.6500    0.0000 C   0  0  0  0  0  0  0  0  0  0  0  0
   -2.1434   -1.2375    0.0000 C   0  0  0  0  0  0  0  0  0  0  0  0
   -2.1434   -0.4125    0.0000 C   0  0  0  0  0  0  0  0  0  0  0  0
   -2.8579    0.0000    0.0000 Cl  0  0  0  0  0  0  0  0  0  0  0  0
   -1.4289    0.0000    0.0000 C   0  0  0  0  0  0  0  0  0  0  0  0
   -0.7145   -0.4125    0.0000 C   0  0  0  0  0  0  0  0  0  0  0  0
    0.7145   -1.2375    0.0000 S   0  0  0  0  0  0  0  0  0  0  0  0
    0.1842   -0.6055    0.0000 O   0  0  0  0  0  0  0  0  0  0  0  0
    1.2448   -0.6055    0.0000 O   0  0  0  0  0  0  0  0  0  0  0  0
    1.4289   -1.6500    0.0000 C   0  0  0  0  0  0  0  0  0  0  0  0
    1.4289   -2.4750    0.0000 C   0  0  0  0  0  0  0  0  0  0  0  0
    0.7145   -2.8875    0.0000 C   0  0  0  0  0  0  0  0  0  0  0  0
    0.7145   -3.7125    0.0000 O   0  0  0  0  0  0  0  0  0  0  0  0
  1  2  1  0  0  0  0
  2  3  1  0  0  0  0
  3  4  1  0  0  0  0
  4  5  4  0  0  0  0
  5  6  4  0  0  0  0
  6  7  4  0  0  0  0
  7  8  1  0  0  0  0
  7  9  4  0  0  0  0
  9 10  4  0  0  0  0
  4 10  4  0  0  0  0
  3 11  1  0  0  0  0
 11 12  2  0  0  0  0
 11 13  2  0  0  0  0
 11 14  1  0  0  0  0
 14 15  1  0  0  0  0
 15 16  1  0  0  0  0
  2 16  1  0  0  0  0
 16 17  2  0  0  0  0
M  END

> <ChembankId>
1471

> <SMILES>
CN1C(c2ccc(Cl)cc2)S(=O)(=O)CCC1=O

> <InChI>
1/C11H12ClNO3S/c1-13-10(14)6-7-17(15,16)11(13)8-2-4-9(12)5-3-8/h2-5,11H,6-7H2,1H3

$$$$
1476
  Marvin  11101114192D          

 21 24  0  0  0  0            999 V2000
    2.3709   -5.1094    0.0000 C   0  0  0  0  0  0  0  0  0  0  0  0
    2.4016   -4.2849    0.0000 N   0  0  0  0  0  0  0  0  0  0  0  0
    1.7029   -3.8462    0.0000 C   0  0  0  0  0  0  0  0  0  0  0  0
    1.7335   -3.0218    0.0000 C   0  0  0  0  0  0  0  0  0  0  0  0
    1.0349   -2.5830    0.0000 C   0  0  0  0  0  0  0  0  0  0  0  0
    1.0655   -1.7586    0.0000 C   0  0  0  0  0  0  0  0  0  0  0  0
    1.2052   -0.7200    0.0000 C   0  0  0  0  0  0  0  0  0  0  0  0
    0.9605   -0.1141    0.0000 C   0  0  0  0  0  0  0  0  0  0  0  0
    0.9228   -1.0102    0.0000 C   0  0  0  0  0  0  0  0  0  0  0  0
    1.6614   -1.3425    0.0000 C   0  0  0  0  0  0  0  0  0  0  0  0
    2.2811   -0.7979    0.0000 C   0  0  0  0  0  0  0  0  0  0  0  0
    3.0626   -1.0623    0.0000 C   0  0  0  0  0  0  0  0  0  0  0  0
    3.2244   -1.8712    0.0000 C   0  0  0  0  0  0  0  0  0  0  0  0
    2.6047   -2.4158    0.0000 C   0  0  0  0  0  0  0  0  0  0  0  0
    1.8232   -2.1515    0.0000 C   0  0  0  0  0  0  0  0  0  0  0  0
    0.2262   -2.1175    0.0000 C   0  0  0  0  0  0  0  0  0  0  0  0
   -0.4232   -2.6263    0.0000 C   0  0  0  0  0  0  0  0  0  0  0  0
   -1.1886   -2.3183    0.0000 C   0  0  0  0  0  0  0  0  0  0  0  0
   -1.3045   -1.5015    0.0000 C   0  0  0  0  0  0  0  0  0  0  0  0
   -0.6551   -0.9927    0.0000 C   0  0  0  0  0  0  0  0  0  0  0  0
    0.1103   -1.3007    0.0000 C   0  0  0  0  0  0  0  0  0  0  0  0
  1  2  1  0  0  0  0
  2  3  1  0  0  0  0
  3  4  1  0  0  0  0
  4  5  1  0  0  0  0
  5  6  1  0  0  0  0
  6  7  1  0  0  0  0
  7  8  1  0  0  0  0
  8  9  1  0  0  0  0
  9 10  1  0  0  0  0
 10 11  4  0  0  0  0
 11 12  4  0  0  0  0
 12 13  4  0  0  0  0
 13 14  4  0  0  0  0
 14 15  4  0  0  0  0
 10 15  4  0  0  0  0
  6 15  1  0  0  0  0
  6 16  1  0  0  0  0
 16 17  4  0  0  0  0
 17 18  4  0  0  0  0
 18 19  4  0  0  0  0
 19 20  4  0  0  0  0
 20 21  4  0  0  0  0
  9 21  1  0  0  0  0
 16 21  4  0  0  0  0
M  END

> <ChembankId>
1476

> <SMILES>
CNCCCC1(CCC2c3ccccc31)c4ccccc24

> <InChI>
1/C20H23N/c1-21-14-6-12-20-13-11-15(16-7-2-4-9-18(16)20)17-8-3-5-10-19(17)20/h2-5,7-10,15,21H,6,11-14H2,1H3

$$$$
1480
  Marvin  11101114192D          

 11 12  0  0  0  0            999 V2000
    4.0668    2.3479    0.0000 Cl  0  0  0  0  0  0  0  0  0  0  0  0
    3.3523    1.9354    0.0000 C   0  0  0  0  0  0  0  0  0  0  0  0
    3.3523    1.1104    0.0000 C   0  0  0  0  0  0  0  0  0  0  0  0
    2.6378    0.6979    0.0000 C   0  0  0  0  0  0  0  0  0  0  0  0
    1.9233    1.1104    0.0000 C   0  0  0  0  0  0  0  0  0  0  0  0
    1.1387    0.8555    0.0000 O   0  0  0  0  0  0  0  0  0  0  0  0
    0.6538    1.5229    0.0000 C   0  0  0  0  0  0  0  0  0  0  0  0
   -0.1712    1.5229    0.0000 O   0  0  0  0  0  0  0  0  0  0  0  0
    1.1387    2.1904    0.0000 N   0  0  0  0  0  0  0  0  0  0  0  0
    1.9233    1.9354    0.0000 C   0  0  0  0  0  0  0  0  0  0  0  0
    2.6378    2.3479    0.0000 C   0  0  0  0  0  0  0  0  0  0  0  0
  1  2  1  0  0  0  0
  2  3  4  0  0  0  0
  3  4  4  0  0  0  0
  4  5  4  0  0  0  0
  5  6  4  0  0  0  0
  6  7  4  0  0  0  0
  7  8  2  0  0  0  0
  7  9  4  0  0  0  0
  9 10  4  0  0  0  0
  5 10  4  0  0  0  0
 10 11  4  0  0  0  0
  2 11  4  0  0  0  0
M  STY  1   1 DAT
M  SAL   1  1   9
M  SDT   1 MRV_IMPLICIT_H                                        
M  SDD   1     0.0000    0.0000    DR    ALL  0       0  
M  SED   1 IMPL_H1
M  END

> <ChembankId>
1480

> <SMILES>
Clc1ccc2oc(=O)[nH]c2c1

> <InChI>
1/C7H4ClNO2/c8-4-1-2-6-5(3-4)9-7(10)11-6/h1-3H,(H,9,10)

$$$$
1482
  Marvin  11101114192D          

 15 17  0  0  0  0            999 V2000
    0.0000   -1.6500    0.0000 C   0  0  0  0  0  0  0  0  0  0  0  0
    0.7145   -1.2375    0.0000 N   0  0  0  0  0  0  0  0  0  0  0  0
    0.7145   -0.4125    0.0000 C   0  0  0  0  0  0  0  0  0  0  0  0
    1.4289    0.0000    0.0000 C   0  0  0  0  0  0  0  0  0  0  0  0
    2.1434   -0.4125    0.0000 C   0  0  0  0  0  0  0  0  0  0  0  0
    2.8579    0.0000    0.0000 C   0  0  0  0  0  0  0  0  0  0  0  0
    3.5724   -0.4125    0.0000 C   0  0  0  0  0  0  0  0  0  0  0  0
    4.3570   -0.1576    0.0000 O   0  0  0  0  0  0  0  0  0  0  0  0
    4.8419   -0.8250    0.0000 C   0  0  0  0  0  0  0  0  0  0  0  0
    4.3570   -1.4924    0.0000 O   0  0  0  0  0  0  0  0  0  0  0  0
    3.5724   -1.2375    0.0000 C   0  0  0  0  0  0  0  0  0  0  0  0
    2.8579   -1.6500    0.0000 C   0  0  0  0  0  0  0  0  0  0  0  0
    2.1434   -1.2375    0.0000 C   0  0  0  0  0  0  0  0  0  0  0  0
    1.4289   -1.6500    0.0000 C   0  0  0  0  0  0  0  0  0  0  0  0
    1.4289   -2.4750    0.0000 O   0  0  0  0  0  0  0  0  0  0  0  0
  1  2  1  0  0  0  0
  2  3  1  0  0  0  0
  3  4  1  0  0  0  0
  4  5  1  0  0  0  0
  5  6  4  0  0  0  0
  6  7  4  0  0  0  0
  7  8  1  0  0  0  0
  8  9  1  0  0  0  0
  9 10  1  0  0  0  0
 10 11  1  0  0  0  0
  7 11  4  0  0  0  0
 11 12  4  0  0  0  0
 12 13  4  0  0  0  0
  5 13  4  0  0  0  0
 13 14  1  0  0  0  0
  2 14  1  0  0  0  0
 14 15  1  0  0  0  0
M  END

> <ChembankId>
1482

> <SMILES>
CN1CCc2cc3OCOc3cc2C1O

> <InChI>
1/C11H13NO3/c1-12-3-2-7-4-9-10(15-6-14-9)5-8(7)11(12)13/h4-5,11,13H,2-3,6H2,1H3

$$$$
1485
  Marvin  11101114192D          

 19 19  0  0  0  0            999 V2000
    2.8579    3.3000    0.0000 C   0  0  0  0  0  0  0  0  0  0  0  0
    2.8579    2.4750    0.0000 C   0  0  0  0  0  0  0  0  0  0  0  0
    2.1434    2.0625    0.0000 C   0  0  0  0  0  0  0  0  0  0  0  0
    1.4289    2.4750    0.0000 C   0  0  0  0  0  0  0  0  0  0  0  0
    2.1434    1.2375    0.0000 C   0  0  0  0  0  0  0  0  0  0  0  0
    2.8579    0.8250    0.0000 O   0  0  0  0  0  0  0  0  0  0  0  0
    1.4289    0.8250    0.0000 C   0  0  0  0  0  0  0  0  0  0  0  0
    1.4289   -0.0000    0.0000 C   0  0  0  0  0  0  0  0  0  0  0  0
    0.7145   -0.4125    0.0000 C   0  0  0  0  0  0  0  0  0  0  0  0
    0.0000    0.0000    0.0000 C   0  0  0  0  0  0  0  0  0  0  0  0
   -0.7145   -0.4125    0.0000 O   0  0  0  0  0  0  0  0  0  0  0  0
   -0.7145   -1.2375    0.0000 C   0  0  0  0  0  0  0  0  0  0  0  0
   -1.4289   -1.6500    0.0000 C   0  0  0  0  0  0  0  0  0  0  0  0
   -1.4289   -2.4750    0.0000 O   0  0  0  0  0  0  0  0  0  0  0  0
   -2.1434   -1.2375    0.0000 O   0  0  0  0  0  0  0  0  0  0  0  0
    0.0000    0.8250    0.0000 C   0  0  0  0  0  0  0  0  0  0  0  0
   -0.7145    1.2375    0.0000 Cl  0  0  0  0  0  0  0  0  0  0  0  0
    0.7145    1.2375    0.0000 C   0  0  0  0  0  0  0  0  0  0  0  0
    0.7145    2.0625    0.0000 Cl  0  0  0  0  0  0  0  0  0  0  0  0
  1  2  1  0  0  0  0
  2  3  1  0  0  0  0
  3  4  2  0  0  0  0
  3  5  1  0  0  0  0
  5  6  2  0  0  0  0
  5  7  1  0  0  0  0
  7  8  4  0  0  0  0
  8  9  4  0  0  0  0
  9 10  4  0  0  0  0
 10 11  1  0  0  0  0
 11 12  1  0  0  0  0
 12 13  1  0  0  0  0
 13 14  2  0  0  0  0
 13 15  1  0  0  0  0
 10 16  4  0  0  0  0
 16 17  1  0  0  0  0
 16 18  4  0  0  0  0
  7 18  4  0  0  0  0
 18 19  1  0  0  0  0
M  END

> <ChembankId>
1485

> <SMILES>
CCC(=C)C(=O)c1ccc(OCC(=O)O)c(Cl)c1Cl

> <InChI>
1/C13H12Cl2O4/c1-3-7(2)13(18)8-4-5-9(12(15)11(8)14)19-6-10(16)17/h4-5H,2-3,6H2,1H3,(H,16,17)

$$$$
1486
  Marvin  11101114192D          

 19 19  0  0  0  0            999 V2000
   -3.5724   -2.8875    0.0000 C   0  0  0  0  0  0  0  0  0  0  0  0
   -2.8579   -3.3000    0.0000 C   0  0  0  0  0  0  0  0  0  0  0  0
   -2.8579   -4.1250    0.0000 C   0  0  0  0  0  0  0  0  0  0  0  0
   -2.1434   -2.8875    0.0000 N   0  0  0  0  0  0  0  0  0  0  0  0
   -1.4289   -3.3000    0.0000 C   0  0  0  0  0  0  0  0  0  0  0  0
   -0.7145   -2.8875    0.0000 C   0  0  0  0  0  0  0  0  0  0  0  0
   -0.7145   -2.0625    0.0000 O   0  0  0  0  0  0  0  0  0  0  0  0
    0.0000   -3.3000    0.0000 C   0  0  0  0  0  0  0  0  0  0  0  0
    0.7145   -2.8875    0.0000 O   0  0  0  0  0  0  0  0  0  0  0  0
    1.4289   -3.3000    0.0000 C   0  0  0  0  0  0  0  0  0  0  0  0
    2.1434   -2.8875    0.0000 C   0  0  0  0  0  0  0  0  0  0  0  0
    2.8579   -3.3000    0.0000 C   0  0  0  0  0  0  0  0  0  0  0  0
    2.8579   -4.1250    0.0000 C   0  0  0  0  0  0  0  0  0  0  0  0
    3.5724   -4.5375    0.0000 N   0  0  0  0  0  0  0  0  0  0  0  0
    3.5724   -5.3625    0.0000 C   0  0  0  0  0  0  0  0  0  0  0  0
    4.2868   -5.7750    0.0000 O   0  0  0  0  0  0  0  0  0  0  0  0
    2.8579   -5.7750    0.0000 C   0  0  0  0  0  0  0  0  0  0  0  0
    2.1434   -4.5375    0.0000 C   0  0  0  0  0  0  0  0  0  0  0  0
    1.4289   -4.1250    0.0000 C   0  0  0  0  0  0  0  0  0  0  0  0
  1  2  1  0  0  0  0
  2  3  1  0  0  0  0
  2  4  1  0  0  0  0
  4  5  1  0  0  0  0
  5  6  1  0  0  0  0
  6  7  1  0  0  0  0
  6  8  1  0  0  0  0
  8  9  1  0  0  0  0
  9 10  1  0  0  0  0
 10 11  4  0  0  0  0
 11 12  4  0  0  0  0
 12 13  4  0  0  0  0
 13 14  1  0  0  0  0
 14 15  1  0  0  0  0
 15 16  2  0  0  0  0
 15 17  1  0  0  0  0
 13 18  4  0  0  0  0
 18 19  4  0  0  0  0
 10 19  4  0  0  0  0
M  END

> <ChembankId>
1486

> <SMILES>
CC(C)NCC(O)COc1ccc(NC(=O)C)cc1

> <InChI>
1/C14H22N2O3/c1-10(2)15-8-13(18)9-19-14-6-4-12(5-7-14)16-11(3)17/h4-7,10,13,15,18H,8-9H2,1-3H3,(H,16,17)

$$$$
1487
  Marvin  11101114192D          

 17 17  0  0  0  0            999 V2000
    1.4289    3.3000    0.0000 C   0  0  0  0  0  0  0  0  0  0  0  0
    1.4289    2.4750    0.0000 C   0  0  0  0  0  0  0  0  0  0  0  0
    2.1434    2.0625    0.0000 C   0  0  0  0  0  0  0  0  0  0  0  0
    2.1434    1.2375    0.0000 C   0  0  0  0  0  0  0  0  0  0  0  0
    1.4289    0.8250    0.0000 C   0  0  0  0  0  0  0  0  0  0  0  0
    1.4289   -0.0000    0.0000 C   0  0  0  0  0  0  0  0  0  0  0  0
    2.1434   -0.4125    0.0000 I   0  0  0  0  0  0  0  0  0  0  0  0
    0.7145   -0.4125    0.0000 C   0  0  0  0  0  0  0  0  0  0  0  0
    0.0000    0.0000    0.0000 C   0  0  0  0  0  0  0  0  0  0  0  0
   -0.7145   -0.4125    0.0000 I   0  0  0  0  0  0  0  0  0  0  0  0
    0.0000    0.8250    0.0000 C   0  0  0  0  0  0  0  0  0  0  0  0
   -0.7145    1.2375    0.0000 N   0  0  0  0  0  0  0  0  0  0  0  0
    0.7145    1.2375    0.0000 C   0  0  0  0  0  0  0  0  0  0  0  0
    0.7145    2.0625    0.0000 I   0  0  0  0  0  0  0  0  0  0  0  0
    2.8579    2.4750    0.0000 C   0  0  0  0  0  0  0  0  0  0  0  0
    3.5724    2.0625    0.0000 O   0  0  0  0  0  0  0  0  0  0  0  0
    2.8579    3.3000    0.0000 O   0  0  0  0  0  0  0  0  0  0  0  0
  1  2  1  0  0  0  0
  2  3  1  0  0  0  0
  3  4  1  0  0  0  0
  4  5  1  0  0  0  0
  5  6  4  0  0  0  0
  6  7  1  0  0  0  0
  6  8  4  0  0  0  0
  8  9  4  0  0  0  0
  9 10  1  0  0  0  0
  9 11  4  0  0  0  0
 11 12  1  0  0  0  0
 11 13  4  0  0  0  0
  5 13  4  0  0  0  0
 13 14  1  0  0  0  0
  3 15  1  0  0  0  0
 15 16  2  0  0  0  0
 15 17  1  0  0  0  0
M  END

> <ChembankId>
1487

> <SMILES>
CCC(Cc1c(I)cc(I)c(N)c1I)C(=O)O

> <InChI>
1/C11H12I3NO2/c1-2-5(11(16)17)3-6-7(12)4-8(13)10(15)9(6)14/h4-5H,2-3,15H2,1H3,(H,16,17)

$$$$
3172974
  Marvin  11101114192D          

 41 46  0  0  1  0            999 V2000
   -1.4128    0.4603    0.0000 C   0  0  0  0  0  0  0  0  0  0  0  0
   -1.6931   -0.3156    0.0000 C   0  0  2  0  0  0  0  0  0  0  0  0
   -1.1613   -0.9463    0.0000 O   0  0  0  0  0  0  0  0  0  0  0  0
   -1.4416   -1.7222    0.0000 C   0  0  1  0  0  0  0  0  0  0  0  0
   -0.9098   -2.3529    0.0000 O   0  0  0  0  0  0  0  0  0  0  0  0
   -0.0976   -2.2077    0.0000 C   0  0  1  0  0  0  0  0  0  0  0  0
    0.1827   -1.4318    0.0000 C   0  0  0  0  0  0  0  0  0  0  0  0
    0.9948   -1.2866    0.0000 C   0  0  1  0  0  0  0  0  0  0  0  0
    1.2751   -0.5107    0.0000 O   0  0  0  0  0  0  0  0  0  0  0  0
    1.5266   -1.9173    0.0000 C   0  0  2  0  0  0  0  0  0  0  0  0
    1.8069   -1.1414    0.0000 C   0  0  0  0  0  0  0  0  0  0  0  0
    1.7474   -0.3185    0.0000 O   0  0  0  0  0  0  0  0  0  0  0  0
    2.3387   -1.7721    0.0000 C   0  0  0  0  0  0  0  0  0  0  0  0
    2.6190   -0.9961    0.0000 C   0  0  2  0  0  0  0  0  0  0  0  0
    2.0872   -0.3654    0.0000 O   0  0  0  0  0  0  0  0  0  0  0  0
    3.4311   -0.8509    0.0000 C   0  0  0  0  0  0  0  0  0  0  0  0
    3.9629   -1.4816    0.0000 C   0  0  2  0  0  0  0  0  0  0  0  0
    4.3228   -0.7393    0.0000 C   0  0  0  0  0  0  0  0  0  0  0  0
    4.7875   -1.5084    0.0000 C   0  0  2  0  0  0  0  0  0  0  0  0
    5.0168   -2.3009    0.0000 C   0  0  0  0  0  0  0  0  0  0  0  0
    4.3340   -2.7639    0.0000 C   0  0  0  0  0  0  0  0  0  0  0  0
    3.6826   -2.2576    0.0000 C   0  0  1  0  0  0  0  0  0  0  0  0
    3.4850   -3.0585    0.0000 O   0  0  0  0  0  0  0  0  0  0  0  0
    2.8705   -2.4028    0.0000 C   0  0  0  0  0  0  0  0  0  0  0  0
    2.5902   -3.1787    0.0000 C   0  0  0  0  0  0  0  0  0  0  0  0
    1.7781   -3.3239    0.0000 C   0  0  0  0  0  0  0  0  0  0  0  0
    1.2463   -2.6932    0.0000 C   0  0  1  0  0  0  0  0  0  0  0  0
    0.9660   -3.4691    0.0000 O   0  0  0  0  0  0  0  0  0  0  0  0
    0.4342   -2.8384    0.0000 C   0  0  0  0  0  0  0  0  0  0  0  0
    5.2939   -0.8571    0.0000 C   0  0  0  0  0  0  0  0  0  0  0  0
    5.0646   -0.0646    0.0000 C   0  0  0  0  0  0  0  0  0  0  0  0
    5.7474    0.3984    0.0000 C   0  0  0  0  0  0  0  0  0  0  0  0
    5.7742    1.2229    0.0000 O   0  0  0  0  0  0  0  0  0  0  0  0
    6.3987   -0.1080    0.0000 O   0  0  0  0  0  0  0  0  0  0  0  0
    6.1184   -0.8839    0.0000 C   0  0  0  0  0  0  0  0  0  0  0  0
   -2.2537   -1.8674    0.0000 C   0  0  2  0  0  0  0  0  0  0  0  0
   -2.5340   -2.6434    0.0000 O   0  0  0  0  0  0  0  0  0  0  0  0
   -2.7855   -1.2367    0.0000 C   0  0  2  0  0  0  0  0  0  0  0  0
   -3.5976   -1.3819    0.0000 O   0  0  0  0  0  0  0  0  0  0  0  0
   -2.5052   -0.4608    0.0000 C   0  0  1  0  0  0  0  0  0  0  0  0
   -3.0370    0.1699    0.0000 O   0  0  0  0  0  0  0  0  0  0  0  0
  2  1  1  6  0  0  0
  2  3  1  0  0  0  0
  3  4  1  0  0  0  0
  4  5  1  1  0  0  0
  6  5  1  1  0  0  0
  6  7  1  0  0  0  0
  7  8  1  0  0  0  0
  8  9  1  1  0  0  0
  8 10  1  0  0  0  0
 10 11  1  1  0  0  0
 11 12  1  0  0  0  0
 10 13  1  0  0  0  0
 13 14  1  0  0  0  0
 14 15  1  6  0  0  0
 14 16  1  0  0  0  0
 16 17  1  0  0  0  0
 17 18  1  1  0  0  0
 17 19  1  0  0  0  0
 19 20  1  0  0  0  0
 20 21  1  0  0  0  0
 21 22  1  0  0  0  0
 17 22  1  0  0  0  0
 22 23  1  1  0  0  0
 22 24  1  0  0  0  0
 13 24  1  0  0  0  0
 24 25  1  0  0  0  0
 25 26  1  0  0  0  0
 26 27  1  0  0  0  0
 10 27  1  0  0  0  0
 27 28  1  1  0  0  0
 27 29  1  0  0  0  0
  6 29  1  0  0  0  0
 19 30  1  1  0  0  0
 30 31  2  0  0  0  0
 31 32  1  0  0  0  0
 32 33  2  0  0  0  0
 32 34  1  0  0  0  0
 34 35  1  0  0  0  0
 30 35  1  0  0  0  0
  4 36  1  0  0  0  0
 36 37  1  6  0  0  0
 36 38  1  0  0  0  0
 38 39  1  6  0  0  0
 38 40  1  0  0  0  0
  2 40  1  0  0  0  0
 40 41  1  1  0  0  0
M  END

> <ChembankId>
3172974

> <SMILES>
C[C@@H]1O[C@@H](O[C@H]2C[C@@H](O)[C@]3(CO)C4[C@H](O)C[C@]5(C)[C@H](CC[C@]5(O)C4CC[C@]3(O)C2)C6=CC(=O)OC6)[C@H](O)[C@H](O)[C@H]1O

> <InChI>
1/C29H44O12/c1-13-22(34)23(35)24(36)25(40-13)41-15-8-19(32)28(12-30)21-17(3-5-27(28,37)9-15)29(38)6-4-16(14-7-20(33)39-11-14)26(29,2)10-18(21)31/h7,13,15-19,21-25,30-32,34-38H,3-6,8-12H2,1-2H3

$$$$
1000139
  Marvin  11101114192D          

 36 39  0  0  1  0            999 V2000
   -0.3720   -0.8655    0.0000 C   0  0  0  0  0  0  0  0  0  0  0  0
    0.0405   -0.1510    0.0000 O   0  0  0  0  0  0  0  0  0  0  0  0
    0.8655   -0.1510    0.0000 C   0  0  2  0  0  0  0  0  0  0  0  0
    0.8655    0.6740    0.0000 N   0  0  0  0  0  0  0  0  0  0  0  0
    0.1510    1.0865    0.0000 C   0  0  0  0  0  0  0  0  0  0  0  0
   -0.5635    0.6740    0.0000 O   0  0  0  0  0  0  0  0  0  0  0  0
    0.1510    1.9115    0.0000 C   0  0  0  0  0  0  0  0  0  0  0  0
   -0.5635    2.3240    0.0000 C   0  0  0  0  0  0  0  0  0  0  0  0
   -1.2780    1.9115    0.0000 O   0  0  0  0  0  0  0  0  0  0  0  0
   -0.5635    3.1490    0.0000 O   0  0  0  0  0  0  0  0  0  0  0  0
    0.8655    2.3240    0.0000 C   0  0  0  0  0  0  0  0  0  0  0  0
    0.8655    3.1490    0.0000 C   0  0  0  0  0  0  0  0  0  0  0  0
    1.5799    3.5615    0.0000 C   0  0  0  0  0  0  0  0  0  0  0  0
    2.2944    3.1490    0.0000 C   0  0  0  0  0  0  0  0  0  0  0  0
    3.0089    3.5615    0.0000 O   0  0  0  0  0  0  0  0  0  0  0  0
    2.2944    2.3240    0.0000 C   0  0  0  0  0  0  0  0  0  0  0  0
    1.5799    1.9115    0.0000 C   0  0  0  0  0  0  0  0  0  0  0  0
    1.6905   -0.1510    0.0000 C   0  0  1  0  0  0  0  0  0  0  0  0
    2.4049    0.2615    0.0000 O   0  0  0  0  0  0  0  0  0  0  0  0
    3.1194   -0.1510    0.0000 C   0  0  0  0  0  0  0  0  0  0  0  0
    3.1194   -0.9760    0.0000 C   0  0  0  0  0  0  0  0  0  0  0  0
    2.4049   -1.3885    0.0000 C   0  0  0  0  0  0  0  0  0  0  0  0
    1.6905   -0.9760    0.0000 N   0  0  0  0  0  0  0  0  0  0  0  0
    0.8655   -0.9760    0.0000 C   0  0  0  0  0  0  0  0  0  0  0  0
    0.2821   -1.5593    0.0000 O   0  0  0  0  0  0  0  0  0  0  0  0
    2.4049   -2.2135    0.0000 C   0  0  0  0  0  0  0  0  0  0  0  0
    1.6905   -2.6260    0.0000 O   0  0  0  0  0  0  0  0  0  0  0  0
    3.1194   -2.6260    0.0000 O   0  0  0  0  0  0  0  0  0  0  0  0
    3.8339   -1.3885    0.0000 C   0  0  0  0  0  0  0  0  0  0  0  0
    4.5483   -0.9760    0.0000 S   0  0  0  0  0  0  0  0  0  0  0  0
    4.5483   -0.1510    0.0000 C   0  0  0  0  0  0  0  0  0  0  0  0
    3.8809    0.3339    0.0000 N   0  0  0  0  0  0  0  0  0  0  0  0
    4.1358    1.1186    0.0000 N   0  0  0  0  0  0  0  0  0  0  0  0
    4.9608    1.1186    0.0000 N   0  0  0  0  0  0  0  0  0  0  0  0
    5.2158    0.3339    0.0000 N   0  0  0  0  0  0  0  0  0  0  0  0
    6.0004    0.0790    0.0000 C   0  0  0  0  0  0  0  0  0  0  0  0
  1  2  1  0  0  0  0
  3  2  1  6  0  0  0
  3  4  1  1  0  0  0
  4  5  1  0  0  0  0
  5  6  2  0  0  0  0
  5  7  1  0  0  0  0
  7  8  1  0  0  0  0
  8  9  2  0  0  0  0
  8 10  1  0  0  0  0
  7 11  1  0  0  0  0
 11 12  4  0  0  0  0
 12 13  4  0  0  0  0
 13 14  4  0  0  0  0
 14 15  1  0  0  0  0
 14 16  4  0  0  0  0
 16 17  4  0  0  0  0
 11 17  4  0  0  0  0
  3 18  1  0  0  0  0
 18 19  1  0  0  0  0
 19 20  1  0  0  0  0
 20 21  1  0  0  0  0
 21 22  2  0  0  0  0
 22 23  1  0  0  0  0
 18 23  1  1  0  0  0
 23 24  1  0  0  0  0
  3 24  1  0  0  0  0
 24 25  2  0  0  0  0
 22 26  1  0  0  0  0
 26 27  2  0  0  0  0
 26 28  1  0  0  0  0
 21 29  1  0  0  0  0
 29 30  1  0  0  0  0
 30 31  1  0  0  0  0
 31 32  4  0  0  0  0
 32 33  4  0  0  0  0
 33 34  4  0  0  0  0
 34 35  4  0  0  0  0
 31 35  4  0  0  0  0
 35 36  1  0  0  0  0
M  END

> <ChembankId>
1000139

> <SMILES>
CO[C@]1(NC(=O)C(C(=O)O)c2ccc(O)cc2)[C@H]3OCC(=C(N3C1=O)C(=O)O)CSc4nnnn4C

> <InChI>
1/C20H20N6O9S/c1-25-19(22-23-24-25)36-8-10-7-35-18-20(34-2,17(33)26(18)13(10)16(31)32)21-14(28)12(15(29)30)9-3-5-11(27)6-4-9/h3-6,12,18,27H,7-8H2,1-2H3,(H,21,28)(H,29,30)(H,31,32)

$$$$
1493
  Marvin  11101114192D          

 32 35  0  0  1  0            999 V2000
    1.8216   -5.0612    0.0000 C   0  0  0  0  0  0  0  0  0  0  0  0
    2.5045   -4.5982    0.0000 C   0  0  0  0  0  0  0  0  0  0  0  0
    2.4450   -3.7753    0.0000 C   0  0  0  0  0  0  0  0  0  0  0  0
    1.6277   -3.6625    0.0000 O   0  0  0  0  0  0  0  0  0  0  0  0
    3.1278   -3.3123    0.0000 O   0  0  0  0  0  0  0  0  0  0  0  0
    3.0683   -2.4895    0.0000 C   0  0  2  0  0  0  0  0  0  0  0  0
    2.8390   -1.6970    0.0000 C   0  0  1  0  0  0  0  0  0  0  0  0
    2.0630   -1.4167    0.0000 C   0  0  0  0  0  0  0  0  0  0  0  0
    3.5218   -1.2340    0.0000 C   0  0  0  0  0  0  0  0  0  0  0  0
    4.1731   -1.7404    0.0000 C   0  0  0  0  0  0  0  0  0  0  0  0
    4.9853   -1.5952    0.0000 C   0  0  0  0  0  0  0  0  0  0  0  0
    5.2655   -0.8192    0.0000 C   0  0  0  0  0  0  0  0  0  0  0  0
    6.0777   -0.6740    0.0000 C   0  0  0  0  0  0  0  0  0  0  0  0
    6.6095   -1.3047    0.0000 C   0  0  0  0  0  0  0  0  0  0  0  0
    7.4216   -1.1595    0.0000 C   0  0  0  0  0  0  0  0  0  0  0  0
    7.9534   -1.7902    0.0000 C   0  0  0  0  0  0  0  0  0  0  0  0
    8.7655   -1.6450    0.0000 O   0  0  0  0  0  0  0  0  0  0  0  0
    7.6731   -2.5662    0.0000 C   0  0  0  0  0  0  0  0  0  0  0  0
    6.8610   -2.7114    0.0000 C   0  0  0  0  0  0  0  0  0  0  0  0
    6.3292   -2.0807    0.0000 C   0  0  1  0  0  0  0  0  0  0  0  0
    6.0489   -2.8566    0.0000 C   0  0  0  0  0  0  0  0  0  0  0  0
    5.5171   -2.2259    0.0000 C   0  0  2  0  0  0  0  0  0  0  0  0
    5.5766   -3.0487    0.0000 F   0  0  0  0  0  0  0  0  0  0  0  0
    5.2368   -3.0018    0.0000 C   0  0  1  0  0  0  0  0  0  0  0  0
    5.7686   -3.6325    0.0000 O   0  0  0  0  0  0  0  0  0  0  0  0
    4.4247   -3.1470    0.0000 C   0  0  0  0  0  0  0  0  0  0  0  0
    3.8928   -2.5163    0.0000 C   0  0  2  0  0  0  0  0  0  0  0  0
    3.5330   -3.2587    0.0000 C   0  0  0  0  0  0  0  0  0  0  0  0
    2.2561   -2.6347    0.0000 C   0  0  0  0  0  0  0  0  0  0  0  0
    1.7243   -2.0040    0.0000 O   0  0  0  0  0  0  0  0  0  0  0  0
    1.9758   -3.4106    0.0000 C   0  0  0  0  0  0  0  0  0  0  0  0
    1.1637   -3.5559    0.0000 Cl  0  0  0  0  0  0  0  0  0  0  0  0
  1  2  1  0  0  0  0
  2  3  1  0  0  0  0
  3  4  2  0  0  0  0
  3  5  1  0  0  0  0
  6  5  1  6  0  0  0
  6  7  1  0  0  0  0
  7  8  1  1  0  0  0
  7  9  1  0  0  0  0
  9 10  1  0  0  0  0
 10 11  1  0  0  0  0
 11 12  1  0  0  0  0
 12 13  1  0  0  0  0
 13 14  1  0  0  0  0
 14 15  2  0  0  0  0
 15 16  1  0  0  0  0
 16 17  2  0  0  0  0
 16 18  1  0  0  0  0
 18 19  2  0  0  0  0
 19 20  1  0  0  0  0
 14 20  1  0  0  0  0
 20 21  1  1  0  0  0
 20 22  1  0  0  0  0
 11 22  1  0  0  0  0
 22 23  1  6  0  0  0
 22 24  1  0  0  0  0
 24 25  1  1  0  0  0
 24 26  1  0  0  0  0
 26 27  1  0  0  0  0
 10 27  1  0  0  0  0
  6 27  1  0  0  0  0
 27 28  1  1  0  0  0
  6 29  1  1  0  0  0
 29 30  2  0  0  0  0
 29 31  1  0  0  0  0
 31 32  1  0  0  0  0
M  END

> <ChembankId>
1493

> <SMILES>
CCC(=O)O[C@@]1([C@@H](C)CC2C3CCC4=CC(=O)C=C[C@]4(C)[C@@]3(F)[C@@H](O)C[C@@]21C)C(=O)CCl

> <InChI>
1/C25H32ClFO5/c1-5-21(31)32-25(20(30)13-26)14(2)10-18-17-7-6-15-11-16(28)8-9-22(15,3)24(17,27)19(29)12-23(18,25)4/h8-9,11,14,17-19,29H,5-7,10,12-13H2,1-4H3

$$$$
1496
  Marvin  11101114192D          

 24 27  0  0  0  0            999 V2000
   -0.9753   -1.0444    0.0000 C   0  0  0  0  0  0  0  0  0  0  0  0
   -0.3705   -1.6055    0.0000 S   0  0  0  0  0  0  0  0  0  0  0  0
    0.4178   -1.3623    0.0000 C   0  0  0  0  0  0  0  0  0  0  0  0
    0.6014   -0.5580    0.0000 C   0  0  0  0  0  0  0  0  0  0  0  0
    1.3897   -0.3148    0.0000 C   0  0  0  0  0  0  0  0  0  0  0  0
    1.9945   -0.8760    0.0000 C   0  0  0  0  0  0  0  0  0  0  0  0
    2.7378   -0.5180    0.0000 S   0  0  0  0  0  0  0  0  0  0  0  0
    3.4811   -0.8760    0.0000 C   0  0  0  0  0  0  0  0  0  0  0  0
    4.0859   -0.3148    0.0000 C   0  0  0  0  0  0  0  0  0  0  0  0
    4.8742   -0.5580    0.0000 C   0  0  0  0  0  0  0  0  0  0  0  0
    5.0578   -1.3623    0.0000 C   0  0  0  0  0  0  0  0  0  0  0  0
    4.4530   -1.9235    0.0000 C   0  0  0  0  0  0  0  0  0  0  0  0
    3.6647   -1.6803    0.0000 C   0  0  0  0  0  0  0  0  0  0  0  0
    3.1503   -2.3253    0.0000 C   0  0  0  0  0  0  0  0  0  0  0  0
    2.3253   -2.3253    0.0000 C   0  0  0  0  0  0  0  0  0  0  0  0
    1.9673   -3.0686    0.0000 N   0  0  0  0  0  0  0  0  0  0  0  0
    2.4321   -3.7502    0.0000 C   0  0  0  0  0  0  0  0  0  0  0  0
    2.0741   -4.4935    0.0000 C   0  0  0  0  0  0  0  0  0  0  0  0
    1.2514   -4.5552    0.0000 N   0  0  0  0  0  0  0  0  0  0  0  0
    0.8935   -5.2985    0.0000 C   0  0  0  0  0  0  0  0  0  0  0  0
    0.7867   -3.8736    0.0000 C   0  0  0  0  0  0  0  0  0  0  0  0
    1.1447   -3.1303    0.0000 C   0  0  0  0  0  0  0  0  0  0  0  0
    1.8109   -1.6803    0.0000 C   0  0  0  0  0  0  0  0  0  0  0  0
    1.0226   -1.9235    0.0000 C   0  0  0  0  0  0  0  0  0  0  0  0
  1  2  1  0  0  0  0
  2  3  1  0  0  0  0
  3  4  4  0  0  0  0
  4  5  4  0  0  0  0
  5  6  4  0  0  0  0
  6  7  1  0  0  0  0
  7  8  1  0  0  0  0
  8  9  4  0  0  0  0
  9 10  4  0  0  0  0
 10 11  4  0  0  0  0
 11 12  4  0  0  0  0
 12 13  4  0  0  0  0
  8 13  4  0  0  0  0
 13 14  1  0  0  0  0
 14 15  1  0  0  0  0
 15 16  1  0  0  0  0
 16 17  1  0  0  0  0
 17 18  1  0  0  0  0
 18 19  1  0  0  0  0
 19 20  1  0  0  0  0
 19 21  1  0  0  0  0
 21 22  1  0  0  0  0
 16 22  1  0  0  0  0
 15 23  1  0  0  0  0
  6 23  4  0  0  0  0
 23 24  4  0  0  0  0
  3 24  4  0  0  0  0
M  END

> <ChembankId>
1496

> <SMILES>
CSc1ccc2Sc3ccccc3CC(N4CCN(C)CC4)c2c1

> <InChI>
1/C20H24N2S2/c1-21-9-11-22(12-10-21)18-13-15-5-3-4-6-19(15)24-20-8-7-16(23-2)14-17(18)20/h3-8,14,18H,9-13H2,1-2H3

$$$$
1499
  Marvin  11101114192D          

 19 20  0  0  0  0            999 V2000
    1.4289   -1.6500    0.0000 C   0  0  0  0  0  0  0  0  0  0  0  0
    1.4289   -2.4750    0.0000 C   0  0  0  0  0  0  0  0  0  0  0  0
    2.0964   -2.9599    0.0000 O   0  0  0  0  0  0  0  0  0  0  0  0
    1.8414   -3.7445    0.0000 N   0  0  0  0  0  0  0  0  0  0  0  0
    1.0164   -3.7445    0.0000 C   0  0  0  0  0  0  0  0  0  0  0  0
    0.7615   -2.9599    0.0000 C   0  0  0  0  0  0  0  0  0  0  0  0
   -0.0231   -2.7050    0.0000 C   0  0  0  0  0  0  0  0  0  0  0  0
   -0.1946   -1.8980    0.0000 O   0  0  0  0  0  0  0  0  0  0  0  0
   -0.6362   -3.2570    0.0000 N   0  0  0  0  0  0  0  0  0  0  0  0
   -1.4208   -3.0021    0.0000 C   0  0  0  0  0  0  0  0  0  0  0  0
   -2.0339   -3.5541    0.0000 C   0  0  0  0  0  0  0  0  0  0  0  0
   -2.8186   -3.2992    0.0000 C   0  0  0  0  0  0  0  0  0  0  0  0
   -2.9901   -2.4922    0.0000 C   0  0  0  0  0  0  0  0  0  0  0  0
   -2.3770   -1.9402    0.0000 C   0  0  0  0  0  0  0  0  0  0  0  0
   -1.5924   -2.1951    0.0000 C   0  0  0  0  0  0  0  0  0  0  0  0
   -3.7747   -2.2373    0.0000 C   0  0  0  0  0  0  0  0  0  0  0  0
   -4.5593   -1.9823    0.0000 F   0  0  0  0  0  0  0  0  0  0  0  0
   -3.5198   -1.4526    0.0000 F   0  0  0  0  0  0  0  0  0  0  0  0
   -4.0296   -3.0219    0.0000 F   0  0  0  0  0  0  0  0  0  0  0  0
  1  2  1  0  0  0  0
  2  3  4  0  0  0  0
  3  4  4  0  0  0  0
  4  5  4  0  0  0  0
  5  6  4  0  0  0  0
  2  6  4  0  0  0  0
  6  7  1  0  0  0  0
  7  8  2  0  0  0  0
  7  9  1  0  0  0  0
  9 10  1  0  0  0  0
 10 11  4  0  0  0  0
 11 12  4  0  0  0  0
 12 13  4  0  0  0  0
 13 14  4  0  0  0  0
 14 15  4  0  0  0  0
 10 15  4  0  0  0  0
 13 16  1  0  0  0  0
 16 17  1  0  0  0  0
 16 18  1  0  0  0  0
 16 19  1  0  0  0  0
M  END

> <ChembankId>
1499

> <SMILES>
Cc1oncc1C(=O)Nc2ccc(cc2)C(F)(F)F

> <InChI>
1/C12H9F3N2O2/c1-7-10(6-16-19-7)11(18)17-9-4-2-8(3-5-9)12(13,14)15/h2-6H,1H3,(H,17,18)

$$$$
1503
  Marvin  11101114192D          

 25 27  0  0  0  0            999 V2000
   -1.4087    1.4455    0.0000 C   0  0  0  0  0  0  0  0  0  0  0  0
   -1.8212    0.7310    0.0000 C   0  0  0  0  0  0  0  0  0  0  0  0
   -1.4087    0.0165    0.0000 C   0  0  0  0  0  0  0  0  0  0  0  0
   -0.5837    0.0165    0.0000 C   0  0  0  0  0  0  0  0  0  0  0  0
   -0.1712   -0.6979    0.0000 S   0  0  0  0  0  0  0  0  0  0  0  0
   -0.5837   -1.4124    0.0000 O   0  0  0  0  0  0  0  0  0  0  0  0
    0.6538   -0.6979    0.0000 C   0  0  0  0  0  0  0  0  0  0  0  0
    1.1387   -0.0305    0.0000 N   0  0  0  0  0  0  0  0  0  0  0  0
    1.9233   -0.2854    0.0000 C   0  0  0  0  0  0  0  0  0  0  0  0
    2.6378    0.1271    0.0000 C   0  0  0  0  0  0  0  0  0  0  0  0
    3.3523   -0.2854    0.0000 C   0  0  0  0  0  0  0  0  0  0  0  0
    3.3523   -1.1104    0.0000 C   0  0  0  0  0  0  0  0  0  0  0  0
    2.6378   -1.5229    0.0000 C   0  0  0  0  0  0  0  0  0  0  0  0
    1.9233   -1.1104    0.0000 C   0  0  0  0  0  0  0  0  0  0  0  0
    1.1387   -1.3654    0.0000 N   0  0  0  0  0  0  0  0  0  0  0  0
   -1.8212   -0.6979    0.0000 N   0  0  0  0  0  0  0  0  0  0  0  0
   -2.6462   -0.6979    0.0000 C   0  0  0  0  0  0  0  0  0  0  0  0
   -3.0587    0.0165    0.0000 C   0  0  0  0  0  0  0  0  0  0  0  0
   -2.6462    0.7310    0.0000 C   0  0  0  0  0  0  0  0  0  0  0  0
   -3.0587    1.4455    0.0000 O   0  0  0  0  0  0  0  0  0  0  0  0
   -2.6462    2.1599    0.0000 C   0  0  0  0  0  0  0  0  0  0  0  0
   -3.0587    2.8744    0.0000 C   0  0  0  0  0  0  0  0  0  0  0  0
   -3.4712    3.5889    0.0000 F   0  0  0  0  0  0  0  0  0  0  0  0
   -2.3442    3.2869    0.0000 F   0  0  0  0  0  0  0  0  0  0  0  0
   -3.7732    2.4619    0.0000 F   0  0  0  0  0  0  0  0  0  0  0  0
  1  2  1  0  0  0  0
  2  3  4  0  0  0  0
  3  4  1  0  0  0  0
  4  5  1  0  0  0  0
  5  6  2  0  0  0  0
  5  7  1  0  0  0  0
  7  8  4  0  0  0  0
  8  9  4  0  0  0  0
  9 10  4  0  0  0  0
 10 11  4  0  0  0  0
 11 12  4  0  0  0  0
 12 13  4  0  0  0  0
 13 14  4  0  0  0  0
  9 14  4  0  0  0  0
 14 15  4  0  0  0  0
  7 15  4  0  0  0  0
  3 16  4  0  0  0  0
 16 17  4  0  0  0  0
 17 18  4  0  0  0  0
 18 19  4  0  0  0  0
  2 19  4  0  0  0  0
 19 20  1  0  0  0  0
 20 21  1  0  0  0  0
 21 22  1  0  0  0  0
 22 23  1  0  0  0  0
 22 24  1  0  0  0  0
 22 25  1  0  0  0  0
M  STY  1   1 DAT
M  SAL   1  1  15
M  SDT   1 MRV_IMPLICIT_H                                        
M  SDD   1     0.0000    0.0000    DR    ALL  0       0  
M  SED   1 IMPL_H1
M  END

> <ChembankId>
1503

> <SMILES>
Cc1c(CS(=O)c2nc3ccccc3[nH]2)nccc1OCC(F)(F)F

> <InChI>
1/C16H14F3N3O2S/c1-10-13(20-7-6-14(10)24-9-16(17,18)19)8-25(23)15-21-11-4-2-3-5-12(11)22-15/h2-7H,8-9H2,1H3,(H,21,22)

$$$$
1504
  Marvin  11101114192D          

 28 31  0  0  0  0            999 V2000
    2.9195   -1.0164    0.0000 O   0  0  0  0  0  0  0  0  0  0  0  0
    2.5070   -0.3020    0.0000 C   0  0  0  0  0  0  0  0  0  0  0  0
    1.6820   -0.3020    0.0000 C   0  0  0  0  0  0  0  0  0  0  0  0
    1.2695    0.4125    0.0000 C   0  0  0  0  0  0  0  0  0  0  0  0
    0.7846   -0.2549    0.0000 C   0  0  0  0  0  0  0  0  0  0  0  0
    0.0000   -0.0000    0.0000 C   0  0  0  0  0  0  0  0  0  0  0  0
   -0.0000    0.8250    0.0000 C   0  0  0  0  0  0  0  0  0  0  0  0
    0.7846    1.0799    0.0000 C   0  0  0  0  0  0  0  0  0  0  0  0
    1.6820    1.1270    0.0000 C   0  0  0  0  0  0  0  0  0  0  0  0
    2.5070    1.1270    0.0000 C   0  0  0  0  0  0  0  0  0  0  0  0
    2.9195    1.8414    0.0000 O   0  0  0  0  0  0  0  0  0  0  0  0
    2.9195    0.4125    0.0000 N   0  0  0  0  0  0  0  0  0  0  0  0
    3.7445    0.4125    0.0000 C   0  0  0  0  0  0  0  0  0  0  0  0
    4.1570    1.1270    0.0000 C   0  0  0  0  0  0  0  0  0  0  0  0
    4.9820    1.1270    0.0000 C   0  0  0  0  0  0  0  0  0  0  0  0
    5.3945    1.8414    0.0000 C   0  0  0  0  0  0  0  0  0  0  0  0
    6.2195    1.8414    0.0000 N   0  0  0  0  0  0  0  0  0  0  0  0
    6.6320    2.5559    0.0000 C   0  0  0  0  0  0  0  0  0  0  0  0
    7.4570    2.5559    0.0000 C   0  0  0  0  0  0  0  0  0  0  0  0
    7.8695    1.8414    0.0000 N   0  0  0  0  0  0  0  0  0  0  0  0
    7.4570    1.1270    0.0000 C   0  0  0  0  0  0  0  0  0  0  0  0
    6.6320    1.1270    0.0000 C   0  0  0  0  0  0  0  0  0  0  0  0
    8.6945    1.8414    0.0000 C   0  0  0  0  0  0  0  0  0  0  0  0
    9.1070    2.5559    0.0000 N   0  0  0  0  0  0  0  0  0  0  0  0
    9.9320    2.5559    0.0000 C   0  0  0  0  0  0  0  0  0  0  0  0
   10.3445    1.8414    0.0000 C   0  0  0  0  0  0  0  0  0  0  0  0
    9.9320    1.1270    0.0000 C   0  0  0  0  0  0  0  0  0  0  0  0
    9.1070    1.1270    0.0000 N   0  0  0  0  0  0  0  0  0  0  0  0
  1  2  2  0  0  0  0
  2  3  1  0  0  0  0
  3  4  1  0  0  0  0
  4  5  1  0  0  0  0
  5  6  1  0  0  0  0
  6  7  1  0  0  0  0
  7  8  1  0  0  0  0
  4  8  1  0  0  0  0
  4  9  1  0  0  0  0
  9 10  1  0  0  0  0
 10 11  2  0  0  0  0
 10 12  1  0  0  0  0
  2 12  1  0  0  0  0
 12 13  1  0  0  0  0
 13 14  1  0  0  0  0
 14 15  1  0  0  0  0
 15 16  1  0  0  0  0
 16 17  1  0  0  0  0
 17 18  1  0  0  0  0
 18 19  1  0  0  0  0
 19 20  1  0  0  0  0
 20 21  1  0  0  0  0
 21 22  1  0  0  0  0
 17 22  1  0  0  0  0
 20 23  1  0  0  0  0
 23 24  4  0  0  0  0
 24 25  4  0  0  0  0
 25 26  4  0  0  0  0
 26 27  4  0  0  0  0
 27 28  4  0  0  0  0
 23 28  4  0  0  0  0
M  END

> <ChembankId>
1504

> <SMILES>
O=C1CC2(CCCC2)CC(=O)N1CCCCN3CCN(CC3)c4ncccn4

> <InChI>
1/C21H31N5O2/c27-18-16-21(6-1-2-7-21)17-19(28)26(18)11-4-3-10-24-12-14-25(15-13-24)20-22-8-5-9-23-20/h5,8-9H,1-4,6-7,10-17H2

$$$$
1507
  Marvin  11101114192D          

 10  9  0  0  0  0            999 V2000
    1.7605   -1.8414    0.0000 C   0  0  0  0  0  0  0  0  0  0  0  0
    2.4750   -1.4289    0.0000 C   0  0  0  0  0  0  0  0  0  0  0  0
    2.4750   -0.6039    0.0000 N   0  0  0  0  0  0  0  0  0  0  0  0
    3.1895   -1.8414    0.0000 C   0  0  0  0  0  0  0  0  0  0  0  0
    3.9039   -1.4289    0.0000 C   0  0  0  0  0  0  0  0  0  0  0  0
    4.6184   -1.8414    0.0000 C   0  0  0  0  0  0  0  0  0  0  0  0
    5.3329   -1.4289    0.0000 C   0  0  0  0  0  0  0  0  0  0  0  0
    6.0474   -1.0164    0.0000 C   0  0  0  0  0  0  0  0  0  0  0  0
    5.7454   -2.1434    0.0000 C   0  0  0  0  0  0  0  0  0  0  0  0
    4.9204   -0.7145    0.0000 O   0  0  0  0  0  0  0  0  0  0  0  0
  1  2  1  0  0  0  0
  2  3  1  0  0  0  0
  2  4  1  0  0  0  0
  4  5  1  0  0  0  0
  5  6  1  0  0  0  0
  6  7  1  0  0  0  0
  7  8  1  0  0  0  0
  7  9  1  0  0  0  0
  7 10  1  0  0  0  0
M  END

> <ChembankId>
1507

> <SMILES>
CC(N)CCCC(C)(C)O

> <InChI>
1/C8H19NO/c1-7(9)5-4-6-8(2,3)10/h7,10H,4-6,9H2,1-3H3

$$$$
1510
  Marvin  11101114192D          

 18 19  0  0  0  0            999 V2000
    2.1434   -2.0625    0.0000 C   0  0  0  0  0  0  0  0  0  0  0  0
    2.8579   -1.6500    0.0000 N   0  0  0  0  0  0  0  0  0  0  0  0
    2.8579   -0.8250    0.0000 C   0  0  0  0  0  0  0  0  0  0  0  0
    3.5724   -2.0625    0.0000 C   0  0  0  0  0  0  0  0  0  0  0  0
    4.2868   -1.6500    0.0000 C   0  0  0  0  0  0  0  0  0  0  0  0
    5.0013   -2.0625    0.0000 N   0  0  0  0  0  0  0  0  0  0  0  0
    5.7158   -1.6500    0.0000 C   0  0  0  0  0  0  0  0  0  0  0  0
    6.4302   -2.0625    0.0000 C   0  0  0  0  0  0  0  0  0  0  0  0
    7.1839   -1.7269    0.0000 C   0  0  0  0  0  0  0  0  0  0  0  0
    7.7359   -2.3400    0.0000 C   0  0  0  0  0  0  0  0  0  0  0  0
    7.3234   -3.0545    0.0000 C   0  0  0  0  0  0  0  0  0  0  0  0
    6.5165   -2.8830    0.0000 S   0  0  0  0  0  0  0  0  0  0  0  0
    5.0013   -2.8875    0.0000 C   0  0  0  0  0  0  0  0  0  0  0  0
    5.7158   -3.3000    0.0000 C   0  0  0  0  0  0  0  0  0  0  0  0
    5.7158   -4.1250    0.0000 C   0  0  0  0  0  0  0  0  0  0  0  0
    5.0013   -4.5375    0.0000 C   0  0  0  0  0  0  0  0  0  0  0  0
    4.2868   -4.1250    0.0000 C   0  0  0  0  0  0  0  0  0  0  0  0
    4.2868   -3.3000    0.0000 N   0  0  0  0  0  0  0  0  0  0  0  0
  1  2  1  0  0  0  0
  2  3  1  0  0  0  0
  2  4  1  0  0  0  0
  4  5  1  0  0  0  0
  5  6  1  0  0  0  0
  6  7  1  0  0  0  0
  7  8  1  0  0  0  0
  8  9  4  0  0  0  0
  9 10  4  0  0  0  0
 10 11  4  0  0  0  0
 11 12  4  0  0  0  0
  8 12  4  0  0  0  0
  6 13  1  0  0  0  0
 13 14  4  0  0  0  0
 14 15  4  0  0  0  0
 15 16  4  0  0  0  0
 16 17  4  0  0  0  0
 17 18  4  0  0  0  0
 13 18  4  0  0  0  0
M  END

> <ChembankId>
1510

> <SMILES>
CN(C)CCN(Cc1cccs1)c2ccccn2

> <InChI>
1/C14H19N3S/c1-16(2)9-10-17(12-13-6-5-11-18-13)14-7-3-4-8-15-14/h3-8,11H,9-10,12H2,1-2H3

$$$$
1513
  Marvin  11101114192D          

 12 12  0  0  0  0            999 V2000
    2.1434   -2.8875    0.0000 C   0  0  0  0  0  0  0  0  0  0  0  0
    1.4289   -2.4750    0.0000 C   0  0  0  0  0  0  0  0  0  0  0  0
    1.4289   -1.6500    0.0000 O   0  0  0  0  0  0  0  0  0  0  0  0
    0.7145   -1.2375    0.0000 C   0  0  0  0  0  0  0  0  0  0  0  0
    0.0000   -1.6500    0.0000 O   0  0  0  0  0  0  0  0  0  0  0  0
    0.7145   -0.4125    0.0000 C   0  0  0  0  0  0  0  0  0  0  0  0
   -0.0000    0.0000    0.0000 C   0  0  0  0  0  0  0  0  0  0  0  0
    0.0000    0.8250    0.0000 C   0  0  0  0  0  0  0  0  0  0  0  0
    0.7145    1.2375    0.0000 C   0  0  0  0  0  0  0  0  0  0  0  0
    0.7145    2.0625    0.0000 N   0  0  0  0  0  0  0  0  0  0  0  0
    1.4289    0.8250    0.0000 C   0  0  0  0  0  0  0  0  0  0  0  0
    1.4289    0.0000    0.0000 C   0  0  0  0  0  0  0  0  0  0  0  0
  1  2  1  0  0  0  0
  2  3  1  0  0  0  0
  3  4  1  0  0  0  0
  4  5  2  0  0  0  0
  4  6  1  0  0  0  0
  6  7  4  0  0  0  0
  7  8  4  0  0  0  0
  8  9  4  0  0  0  0
  9 10  1  0  0  0  0
  9 11  4  0  0  0  0
 11 12  4  0  0  0  0
  6 12  4  0  0  0  0
M  END

> <ChembankId>
1513

> <SMILES>
CCOC(=O)c1ccc(N)cc1

> <InChI>
1/C9H11NO2/c1-2-12-9(11)7-3-5-8(10)6-4-7/h3-6H,2,10H2,1H3

$$$$
1516
  Marvin  11101114192D          

 15 17  0  0  0  0            999 V2000
    2.1434    2.0625    0.0000 N   0  0  0  0  0  0  0  0  0  0  0  0
    2.1434    1.2375    0.0000 C   0  0  0  0  0  0  0  0  0  0  0  0
    2.8579    0.8250    0.0000 C   0  0  0  0  0  0  0  0  0  0  0  0
    3.5724    1.2375    0.0000 C   0  0  0  0  0  0  0  0  0  0  0  0
    4.2868    0.8250    0.0000 C   0  0  0  0  0  0  0  0  0  0  0  0
    4.2868   -0.0000    0.0000 C   0  0  0  0  0  0  0  0  0  0  0  0
    3.5724   -0.4125    0.0000 C   0  0  0  0  0  0  0  0  0  0  0  0
    2.8579    0.0000    0.0000 C   0  0  0  0  0  0  0  0  0  0  0  0
    2.1434   -0.4125    0.0000 N   0  0  0  0  0  0  0  0  0  0  0  0
    1.4289    0.0000    0.0000 C   0  0  0  0  0  0  0  0  0  0  0  0
    0.7145   -0.4125    0.0000 C   0  0  0  0  0  0  0  0  0  0  0  0
    0.0000    0.0000    0.0000 C   0  0  0  0  0  0  0  0  0  0  0  0
    0.0000    0.8250    0.0000 C   0  0  0  0  0  0  0  0  0  0  0  0
    0.7145    1.2375    0.0000 C   0  0  0  0  0  0  0  0  0  0  0  0
    1.4289    0.8250    0.0000 C   0  0  0  0  0  0  0  0  0  0  0  0
  1  2  1  0  0  0  0
  2  3  4  0  0  0  0
  3  4  1  0  0  0  0
  4  5  1  0  0  0  0
  5  6  1  0  0  0  0
  6  7  1  0  0  0  0
  7  8  1  0  0  0  0
  3  8  4  0  0  0  0
  8  9  4  0  0  0  0
  9 10  4  0  0  0  0
 10 11  4  0  0  0  0
 11 12  4  0  0  0  0
 12 13  4  0  0  0  0
 13 14  4  0  0  0  0
 14 15  4  0  0  0  0
  2 15  4  0  0  0  0
 10 15  4  0  0  0  0
M  END

> <ChembankId>
1516

> <SMILES>
Nc1c2CCCCc2nc3ccccc13

> <InChI>
1/C13H14N2/c14-13-9-5-1-3-7-11(9)15-12-8-4-2-6-10(12)13/h1,3,5,7H,2,4,6,8H2,(H2,14,15)

$$$$
1518
  Marvin  11101114192D          

 18 19  0  0  0  0            999 V2000
    0.0000    0.0000    0.0000 O   0  0  0  0  0  0  0  0  0  0  0  0
    0.7145   -0.4125    0.0000 C   0  0  0  0  0  0  0  0  0  0  0  0
    1.4289   -0.0000    0.0000 O   0  0  0  0  0  0  0  0  0  0  0  0
    0.7145   -1.2375    0.0000 C   0  0  0  0  0  0  0  0  0  0  0  0
    1.4289   -1.6500    0.0000 C   0  0  0  0  0  0  0  0  0  0  0  0
    1.4289   -2.4750    0.0000 C   0  0  0  0  0  0  0  0  0  0  0  0
    0.7145   -2.8875    0.0000 C   0  0  0  0  0  0  0  0  0  0  0  0
    0.0000   -2.4750    0.0000 C   0  0  0  0  0  0  0  0  0  0  0  0
    0.0000   -1.6500    0.0000 C   0  0  0  0  0  0  0  0  0  0  0  0
   -0.7145   -1.2375    0.0000 O   0  0  0  0  0  0  0  0  0  0  0  0
    2.1434   -2.8875    0.0000 C   0  0  0  0  0  0  0  0  0  0  0  0
    2.8579   -2.4750    0.0000 C   0  0  0  0  0  0  0  0  0  0  0  0
    3.5724   -2.8875    0.0000 C   0  0  0  0  0  0  0  0  0  0  0  0
    3.5724   -3.7125    0.0000 C   0  0  0  0  0  0  0  0  0  0  0  0
    4.2868   -4.1250    0.0000 F   0  0  0  0  0  0  0  0  0  0  0  0
    2.8579   -4.1250    0.0000 C   0  0  0  0  0  0  0  0  0  0  0  0
    2.1434   -3.7125    0.0000 C   0  0  0  0  0  0  0  0  0  0  0  0
    1.4289   -4.1250    0.0000 F   0  0  0  0  0  0  0  0  0  0  0  0
  1  2  1  0  0  0  0
  2  3  2  0  0  0  0
  2  4  1  0  0  0  0
  4  5  4  0  0  0  0
  5  6  4  0  0  0  0
  6  7  4  0  0  0  0
  7  8  4  0  0  0  0
  8  9  4  0  0  0  0
  4  9  4  0  0  0  0
  9 10  1  0  0  0  0
  6 11  1  0  0  0  0
 11 12  4  0  0  0  0
 12 13  4  0  0  0  0
 13 14  4  0  0  0  0
 14 15  1  0  0  0  0
 14 16  4  0  0  0  0
 16 17  4  0  0  0  0
 11 17  4  0  0  0  0
 17 18  1  0  0  0  0
M  END

> <ChembankId>
1518

> <SMILES>
OC(=O)c1cc(ccc1O)c2ccc(F)cc2F

> <InChI>
1/C13H8F2O3/c14-8-2-3-9(11(15)6-8)7-1-4-12(16)10(5-7)13(17)18/h1-6,16H,(H,17,18)

$$$$
1526
  Marvin  11101114192D          

 22 23  0  0  0  0            999 V2000
    1.4289   -1.6500    0.0000 C   0  0  0  0  0  0  0  0  0  0  0  0
    1.4289   -2.4750    0.0000 C   0  0  0  0  0  0  0  0  0  0  0  0
    2.1434   -2.8875    0.0000 C   0  0  0  0  0  0  0  0  0  0  0  0
    2.1434   -3.7125    0.0000 C   0  0  0  0  0  0  0  0  0  0  0  0
    1.4289   -4.1250    0.0000 C   0  0  0  0  0  0  0  0  0  0  0  0
    0.7145   -3.7125    0.0000 C   0  0  0  0  0  0  0  0  0  0  0  0
    0.0000   -4.1250    0.0000 C   0  0  0  0  0  0  0  0  0  0  0  0
    0.7145   -2.8875    0.0000 N   0  0  0  0  0  0  0  0  0  0  0  0
    0.0000   -2.4750    0.0000 N   0  0  0  0  0  0  0  0  0  0  0  0
   -0.7145   -2.8875    0.0000 C   0  0  0  0  0  0  0  0  0  0  0  0
   -0.7145   -3.7125    0.0000 O   0  0  0  0  0  0  0  0  0  0  0  0
   -1.4289   -2.4750    0.0000 C   0  0  0  0  0  0  0  0  0  0  0  0
   -2.1434   -2.8875    0.0000 C   0  0  0  0  0  0  0  0  0  0  0  0
   -2.8579   -2.4750    0.0000 C   0  0  0  0  0  0  0  0  0  0  0  0
   -2.8579   -1.6500    0.0000 C   0  0  0  0  0  0  0  0  0  0  0  0
   -3.5724   -1.2375    0.0000 Cl  0  0  0  0  0  0  0  0  0  0  0  0
   -2.1434   -1.2375    0.0000 C   0  0  0  0  0  0  0  0  0  0  0  0
   -1.4289   -1.6500    0.0000 C   0  0  0  0  0  0  0  0  0  0  0  0
   -2.1434   -0.4125    0.0000 S   0  0  0  0  0  0  0  0  0  0  0  0
   -2.1434    0.4125    0.0000 O   0  0  0  0  0  0  0  0  0  0  0  0
   -1.3184   -0.4125    0.0000 O   0  0  0  0  0  0  0  0  0  0  0  0
   -2.9684   -0.4125    0.0000 N   0  0  0  0  0  0  0  0  0  0  0  0
  1  2  1  0  0  0  0
  2  3  1  0  0  0  0
  3  4  1  0  0  0  0
  4  5  1  0  0  0  0
  5  6  1  0  0  0  0
  6  7  1  0  0  0  0
  6  8  1  0  0  0  0
  2  8  1  0  0  0  0
  8  9  1  0  0  0  0
  9 10  1  0  0  0  0
 10 11  2  0  0  0  0
 10 12  1  0  0  0  0
 12 13  4  0  0  0  0
 13 14  4  0  0  0  0
 14 15  4  0  0  0  0
 15 16  1  0  0  0  0
 15 17  4  0  0  0  0
 17 18  4  0  0  0  0
 12 18  4  0  0  0  0
 17 19  1  0  0  0  0
 19 20  2  0  0  0  0
 19 21  2  0  0  0  0
 19 22  1  0  0  0  0
M  END

> <ChembankId>
1526

> <SMILES>
CC1CCCC(C)N1NC(=O)c2ccc(Cl)c(c2)S(=O)(=O)N

> <InChI>
1/C14H20ClN3O3S/c1-9-4-3-5-10(2)18(9)17-14(19)11-6-7-12(15)13(8-11)22(16,20)21/h6-10H,3-5H2,1-2H3,(H,17,19)(H2,16,20,21)

$$$$
1527
  Marvin  11101114192D          

 29 33  0  0  1  0            999 V2000
    1.5210   -2.8083    0.0000 C   0  0  0  0  0  0  0  0  0  0  0  0
    1.9225   -2.0876    0.0000 O   0  0  0  0  0  0  0  0  0  0  0  0
    2.7475   -2.0750    0.0000 C   0  0  0  0  0  0  0  0  0  0  0  0
    3.1490   -1.3544    0.0000 C   0  0  0  0  0  0  0  0  0  0  0  0
    3.9739   -1.3418    0.0000 C   0  0  0  0  0  0  0  0  0  0  0  0
    4.3755   -0.6212    0.0000 O   0  0  0  0  0  0  0  0  0  0  0  0
    5.2004   -0.6086    0.0000 C   0  0  0  0  0  0  0  0  0  0  0  0
    5.6238   -1.3167    0.0000 C   0  0  1  0  0  0  0  0  0  0  0  0
    6.4487   -1.3042    0.0000 O   0  0  0  0  0  0  0  0  0  0  0  0
    6.8720   -2.0123    0.0000 C   0  0  0  0  0  0  0  0  0  0  0  0
    7.6969   -1.9998    0.0000 C   0  0  0  0  0  0  0  0  0  0  0  0
    8.2395   -1.3783    0.0000 C   0  0  0  0  0  0  0  0  0  0  0  0
    8.9982   -1.7024    0.0000 C   0  0  1  0  0  0  0  0  0  0  0  0
    8.9245   -2.5241    0.0000 O   0  0  0  0  0  0  0  0  0  0  0  0
    8.1202   -2.7079    0.0000 C   0  0  0  0  0  0  0  0  0  0  0  0
    7.7186   -3.4285    0.0000 C   0  0  0  0  0  0  0  0  0  0  0  0
    6.8937   -3.4411    0.0000 C   0  0  0  0  0  0  0  0  0  0  0  0
    6.4704   -2.7330    0.0000 C   0  0  0  0  0  0  0  0  0  0  0  0
    5.6455   -2.7455    0.0000 C   0  0  0  0  0  0  0  0  0  0  0  0
    5.2439   -3.4662    0.0000 O   0  0  0  0  0  0  0  0  0  0  0  0
    5.2222   -2.0374    0.0000 C   0  0  1  0  0  0  0  0  0  0  0  0
    4.3973   -2.0500    0.0000 C   0  0  0  0  0  0  0  0  0  0  0  0
    3.9957   -2.7706    0.0000 C   0  0  0  0  0  0  0  0  0  0  0  0
    3.1708   -2.7832    0.0000 C   0  0  0  0  0  0  0  0  0  0  0  0
    2.7692   -3.5038    0.0000 O   0  0  0  0  0  0  0  0  0  0  0  0
    1.9443   -3.5164    0.0000 C   0  0  0  0  0  0  0  0  0  0  0  0
    9.7063   -1.2791    0.0000 C   0  0  0  0  0  0  0  0  0  0  0  0
    9.6938   -0.4542    0.0000 C   0  0  0  0  0  0  0  0  0  0  0  0
   10.4270   -1.6807    0.0000 C   0  0  0  0  0  0  0  0  0  0  0  0
  1  2  1  0  0  0  0
  2  3  1  0  0  0  0
  3  4  4  0  0  0  0
  4  5  4  0  0  0  0
  5  6  1  0  0  0  0
  6  7  1  0  0  0  0
  7  8  1  0  0  0  0
  8  9  1  1  0  0  0
  9 10  1  0  0  0  0
 10 11  4  0  0  0  0
 11 12  1  0  0  0  0
 12 13  1  0  0  0  0
 13 14  1  0  0  0  0
 14 15  1  0  0  0  0
 11 15  4  0  0  0  0
 15 16  4  0  0  0  0
 16 17  4  0  0  0  0
 17 18  4  0  0  0  0
 10 18  4  0  0  0  0
 18 19  1  0  0  0  0
 19 20  2  0  0  0  0
 19 21  1  0  0  0  0
  8 21  1  0  0  0  0
 21 22  1  1  0  0  0
  5 22  4  0  0  0  0
 22 23  4  0  0  0  0
 23 24  4  0  0  0  0
  3 24  4  0  0  0  0
 24 25  1  0  0  0  0
 25 26  1  0  0  0  0
 13 27  1  6  0  0  0
 27 28  2  0  0  0  0
 27 29  1  0  0  0  0
M  END

> <ChembankId>
1527

> <SMILES>
COc1cc2OC[C@H]3Oc4c5C[C@@H](Oc5ccc4C(=O)[C@H]3c2cc1OC)C(=C)C

> <InChI>
1/C23H22O6/c1-11(2)16-8-14-15(28-16)6-5-12-22(24)21-13-7-18(25-3)19(26-4)9-17(13)27-10-20(21)29-23(12)14/h5-7,9,16,20-21H,1,8,10H2,2-4H3

$$$$
1529
  Marvin  11101114192D          

 19 20  0  0  0  0            999 V2000
    1.4289   -0.8250    0.0000 C   0  0  0  0  0  0  0  0  0  0  0  0
    2.1434   -1.2375    0.0000 O   0  0  0  0  0  0  0  0  0  0  0  0
    2.1434   -2.0625    0.0000 C   0  0  0  0  0  0  0  0  0  0  0  0
    2.8579   -2.4750    0.0000 C   0  0  0  0  0  0  0  0  0  0  0  0
    2.8579   -3.3000    0.0000 C   0  0  0  0  0  0  0  0  0  0  0  0
    3.5724   -3.7125    0.0000 N   0  0  0  0  0  0  0  0  0  0  0  0
    3.5724   -4.5375    0.0000 S   0  0  0  0  0  0  0  0  0  0  0  0
    2.7474   -4.5375    0.0000 O   0  0  0  0  0  0  0  0  0  0  0  0
    4.3974   -4.5375    0.0000 O   0  0  0  0  0  0  0  0  0  0  0  0
    3.5724   -5.3625    0.0000 C   0  0  0  0  0  0  0  0  0  0  0  0
    4.2868   -5.7750    0.0000 C   0  0  0  0  0  0  0  0  0  0  0  0
    4.2868   -6.6000    0.0000 C   0  0  0  0  0  0  0  0  0  0  0  0
    3.5724   -7.0125    0.0000 C   0  0  0  0  0  0  0  0  0  0  0  0
    3.5724   -7.8375    0.0000 N   0  0  0  0  0  0  0  0  0  0  0  0
    2.8579   -6.6000    0.0000 C   0  0  0  0  0  0  0  0  0  0  0  0
    2.8579   -5.7750    0.0000 C   0  0  0  0  0  0  0  0  0  0  0  0
    2.1434   -3.7125    0.0000 N   0  0  0  0  0  0  0  0  0  0  0  0
    1.4289   -3.3000    0.0000 C   0  0  0  0  0  0  0  0  0  0  0  0
    1.4289   -2.4750    0.0000 N   0  0  0  0  0  0  0  0  0  0  0  0
  1  2  1  0  0  0  0
  2  3  1  0  0  0  0
  3  4  4  0  0  0  0
  4  5  4  0  0  0  0
  5  6  1  0  0  0  0
  6  7  1  0  0  0  0
  7  8  2  0  0  0  0
  7  9  2  0  0  0  0
  7 10  1  0  0  0  0
 10 11  4  0  0  0  0
 11 12  4  0  0  0  0
 12 13  4  0  0  0  0
 13 14  1  0  0  0  0
 13 15  4  0  0  0  0
 15 16  4  0  0  0  0
 10 16  4  0  0  0  0
  5 17  4  0  0  0  0
 17 18  4  0  0  0  0
 18 19  4  0  0  0  0
  3 19  4  0  0  0  0
M  END

> <ChembankId>
1529

> <SMILES>
COc1cc(NS(=O)(=O)c2ccc(N)cc2)ncn1

> <InChI>
1/C11H12N4O3S/c1-18-11-6-10(13-7-14-11)15-19(16,17)9-4-2-8(12)3-5-9/h2-7H,12H2,1H3,(H,13,14,15)

$$$$
1532
  Marvin  11101114192D          

 24 26  0  0  1  0            999 V2000
   -2.1434   -2.8875    0.0000 O   0  0  0  0  0  0  0  0  0  0  0  0
   -1.4289   -2.4750    0.0000 C   0  0  0  0  0  0  0  0  0  0  0  0
   -1.4289   -1.6500    0.0000 C   0  0  1  0  0  0  0  0  0  0  0  0
   -0.7145   -1.2375    0.0000 O   0  0  0  0  0  0  0  0  0  0  0  0
   -0.7145   -0.4125    0.0000 C   0  0  2  0  0  0  0  0  0  0  0  0
    0.0000    0.0000    0.0000 O   0  0  0  0  0  0  0  0  0  0  0  0
    0.7145   -0.4125    0.0000 C   0  0  0  0  0  0  0  0  0  0  0  0
    1.4289    0.0000    0.0000 C   0  0  0  0  0  0  0  0  0  0  0  0
    2.1434   -0.4125    0.0000 C   0  0  0  0  0  0  0  0  0  0  0  0
    2.8579    0.0000    0.0000 C   0  0  0  0  0  0  0  0  0  0  0  0
    3.5724   -0.4125    0.0000 C   0  0  0  0  0  0  0  0  0  0  0  0
    3.5724   -1.2375    0.0000 C   0  0  0  0  0  0  0  0  0  0  0  0
    4.2868   -1.6500    0.0000 O   0  0  0  0  0  0  0  0  0  0  0  0
    2.8579   -1.6500    0.0000 O   0  0  0  0  0  0  0  0  0  0  0  0
    2.1434   -1.2375    0.0000 C   0  0  0  0  0  0  0  0  0  0  0  0
    1.4289   -1.6500    0.0000 C   0  0  0  0  0  0  0  0  0  0  0  0
    0.7145   -1.2375    0.0000 C   0  0  0  0  0  0  0  0  0  0  0  0
    0.0000   -1.6500    0.0000 O   0  0  0  0  0  0  0  0  0  0  0  0
   -1.4289    0.0000    0.0000 C   0  0  2  0  0  0  0  0  0  0  0  0
   -1.4289    0.8250    0.0000 O   0  0  0  0  0  0  0  0  0  0  0  0
   -2.1434   -0.4125    0.0000 C   0  0  1  0  0  0  0  0  0  0  0  0
   -2.8579    0.0000    0.0000 O   0  0  0  0  0  0  0  0  0  0  0  0
   -2.1434   -1.2375    0.0000 C   0  0  2  0  0  0  0  0  0  0  0  0
   -2.8579   -1.6500    0.0000 O   0  0  0  0  0  0  0  0  0  0  0  0
  1  2  1  0  0  0  0
  3  2  1  6  0  0  0
  3  4  1  0  0  0  0
  4  5  1  0  0  0  0
  5  6  1  1  0  0  0
  6  7  1  0  0  0  0
  7  8  4  0  0  0  0
  8  9  4  0  0  0  0
  9 10  4  0  0  0  0
 10 11  4  0  0  0  0
 11 12  4  0  0  0  0
 12 13  2  0  0  0  0
 12 14  4  0  0  0  0
 14 15  4  0  0  0  0
  9 15  4  0  0  0  0
 15 16  4  0  0  0  0
 16 17  4  0  0  0  0
  7 17  4  0  0  0  0
 17 18  1  0  0  0  0
  5 19  1  0  0  0  0
 19 20  1  1  0  0  0
 19 21  1  0  0  0  0
 21 22  1  6  0  0  0
 21 23  1  0  0  0  0
  3 23  1  0  0  0  0
 23 24  1  1  0  0  0
M  END

> <ChembankId>
1532

> <SMILES>
OC[C@H]1O[C@H](Oc2cc3ccc(=O)oc3cc2O)[C@H](O)[C@@H](O)[C@@H]1O

> <InChI>
1/C15H16O9/c16-5-10-12(19)13(20)14(21)15(24-10)23-9-3-6-1-2-11(18)22-8(6)4-7(9)17/h1-4,10,12-17,19-21H,5H2/t10-,12-,13-,14+,15-/m1/s1

$$$$
1534
  Marvin  11101114192D          

 21 23  0  0  0  0            999 V2000
    5.4957    5.6479    0.0000 O   0  0  0  0  0  0  0  0  0  0  0  0
    5.4957    4.8229    0.0000 C   0  0  0  0  0  0  0  0  0  0  0  0
    4.7812    4.4104    0.0000 C   0  0  0  0  0  0  0  0  0  0  0  0
    4.7812    3.5854    0.0000 C   0  0  0  0  0  0  0  0  0  0  0  0
    4.0668    3.1729    0.0000 C   0  0  0  0  0  0  0  0  0  0  0  0
    4.0668    2.3479    0.0000 C   0  0  0  0  0  0  0  0  0  0  0  0
    3.3523    1.9354    0.0000 C   0  0  0  0  0  0  0  0  0  0  0  0
    3.3523    1.1104    0.0000 C   0  0  0  0  0  0  0  0  0  0  0  0
    2.6378    0.6979    0.0000 C   0  0  0  0  0  0  0  0  0  0  0  0
    1.9233    1.1104    0.0000 C   0  0  0  0  0  0  0  0  0  0  0  0
    1.1387    0.8555    0.0000 O   0  0  0  0  0  0  0  0  0  0  0  0
    0.6538    1.5229    0.0000 C   0  0  0  0  0  0  0  0  0  0  0  0
    1.1387    2.1904    0.0000 O   0  0  0  0  0  0  0  0  0  0  0  0
    1.9233    1.9354    0.0000 C   0  0  0  0  0  0  0  0  0  0  0  0
    2.6378    2.3479    0.0000 C   0  0  0  0  0  0  0  0  0  0  0  0
    6.2102    4.4104    0.0000 N   0  0  0  0  0  0  0  0  0  0  0  0
    6.9246    4.8229    0.0000 C   0  0  0  0  0  0  0  0  0  0  0  0
    7.6391    4.4104    0.0000 C   0  0  0  0  0  0  0  0  0  0  0  0
    7.6391    3.5854    0.0000 C   0  0  0  0  0  0  0  0  0  0  0  0
    6.9246    3.1729    0.0000 C   0  0  0  0  0  0  0  0  0  0  0  0
    6.2102    3.5854    0.0000 C   0  0  0  0  0  0  0  0  0  0  0  0
  1  2  2  0  0  0  0
  2  3  1  0  0  0  0
  3  4  2  0  0  0  0
  4  5  1  0  0  0  0
  5  6  2  0  0  0  0
  6  7  1  0  0  0  0
  7  8  4  0  0  0  0
  8  9  4  0  0  0  0
  9 10  4  0  0  0  0
 10 11  1  0  0  0  0
 11 12  1  0  0  0  0
 12 13  1  0  0  0  0
 13 14  1  0  0  0  0
 10 14  4  0  0  0  0
 14 15  4  0  0  0  0
  7 15  4  0  0  0  0
  2 16  1  0  0  0  0
 16 17  1  0  0  0  0
 17 18  1  0  0  0  0
 18 19  1  0  0  0  0
 19 20  1  0  0  0  0
 20 21  1  0  0  0  0
 16 21  1  0  0  0  0
M  END

> <ChembankId>
1534

> <SMILES>
O=C(/C=C/C=C/c1ccc2OCOc2c1)N3CCCCC3

> <InChI>
1/C17H19NO3/c19-17(18-10-4-1-5-11-18)7-3-2-6-14-8-9-15-16(12-14)21-13-20-15/h2-3,6-9,12H,1,4-5,10-11,13H2

$$$$
1535
  Marvin  11101114192D          

 18 18  0  0  0  0            999 V2000
   -1.4289    0.0000    0.0000 C   0  0  0  0  0  0  0  0  0  0  0  0
   -0.7145   -0.4125    0.0000 O   0  0  0  0  0  0  0  0  0  0  0  0
    0.0000    0.0000    0.0000 C   0  0  0  0  0  0  0  0  0  0  0  0
    0.0000    0.8250    0.0000 C   0  0  0  0  0  0  0  0  0  0  0  0
    0.7145    1.2375    0.0000 C   0  0  0  0  0  0  0  0  0  0  0  0
    1.4289    0.8250    0.0000 C   0  0  0  0  0  0  0  0  0  0  0  0
    2.1434    1.2375    0.0000 O   0  0  0  0  0  0  0  0  0  0  0  0
    2.8579    0.8250    0.0000 C   0  0  0  0  0  0  0  0  0  0  0  0
    1.4289    0.0000    0.0000 C   0  0  0  0  0  0  0  0  0  0  0  0
    0.7145   -0.4125    0.0000 C   0  0  0  0  0  0  0  0  0  0  0  0
    2.1434   -0.4125    0.0000 C   0  0  0  0  0  0  0  0  0  0  0  0
    2.1434   -1.2375    0.0000 O   0  0  0  0  0  0  0  0  0  0  0  0
    2.8579    0.0000    0.0000 C   0  0  0  0  0  0  0  0  0  0  0  0
    3.5724   -0.4125    0.0000 N   0  0  0  0  0  0  0  0  0  0  0  0
    4.2868    0.0000    0.0000 C   0  0  0  0  0  0  0  0  0  0  0  0
    4.2868    0.8250    0.0000 O   0  0  0  0  0  0  0  0  0  0  0  0
    5.0013   -0.4125    0.0000 C   0  0  0  0  0  0  0  0  0  0  0  0
    5.7158    0.0000    0.0000 N   0  0  0  0  0  0  0  0  0  0  0  0
  1  2  1  0  0  0  0
  2  3  1  0  0  0  0
  3  4  4  0  0  0  0
  4  5  4  0  0  0  0
  5  6  4  0  0  0  0
  6  7  1  0  0  0  0
  7  8  1  0  0  0  0
  6  9  4  0  0  0  0
  9 10  4  0  0  0  0
  3 10  4  0  0  0  0
  9 11  1  0  0  0  0
 11 12  1  0  0  0  0
 11 13  1  0  0  0  0
 13 14  1  0  0  0  0
 14 15  1  0  0  0  0
 15 16  2  0  0  0  0
 15 17  1  0  0  0  0
 17 18  1  0  0  0  0
M  END

> <ChembankId>
1535

> <SMILES>
COc1ccc(OC)c(c1)C(O)CNC(=O)CN

> <InChI>
1/C12H18N2O4/c1-17-8-3-4-11(18-2)9(5-8)10(15)7-14-12(16)6-13/h3-5,10,15H,6-7,13H2,1-2H3,(H,14,16)

$$$$
1590
  Marvin  11101114192D          

 35 38  0  0  0  0            999 V2000
   -5.8855   -0.1914    0.0000 C   0  0  0  0  0  0  0  0  0  0  0  0
   -5.8855   -1.0164    0.0000 C   0  0  0  0  0  0  0  0  0  0  0  0
   -6.7105   -1.0164    0.0000 C   0  0  0  0  0  0  0  0  0  0  0  0
   -5.0605   -1.0164    0.0000 C   0  0  0  0  0  0  0  0  0  0  0  0
   -5.8855   -1.8414    0.0000 C   0  0  0  0  0  0  0  0  0  0  0  0
   -5.1711   -2.2539    0.0000 C   0  0  0  0  0  0  0  0  0  0  0  0
   -5.1711   -3.0789    0.0000 C   0  0  0  0  0  0  0  0  0  0  0  0
   -5.8855   -3.4914    0.0000 C   0  0  0  0  0  0  0  0  0  0  0  0
   -6.6000   -3.0789    0.0000 C   0  0  0  0  0  0  0  0  0  0  0  0
   -6.6000   -2.2539    0.0000 C   0  0  0  0  0  0  0  0  0  0  0  0
   -5.8855   -4.3164    0.0000 C   0  0  0  0  0  0  0  0  0  0  0  0
   -6.6000   -4.7289    0.0000 O   0  0  0  0  0  0  0  0  0  0  0  0
   -5.1711   -4.7289    0.0000 C   0  0  0  0  0  0  0  0  0  0  0  0
   -5.1711   -5.5539    0.0000 C   0  0  0  0  0  0  0  0  0  0  0  0
   -4.4566   -5.9664    0.0000 C   0  0  0  0  0  0  0  0  0  0  0  0
   -4.4566   -6.7914    0.0000 N   0  0  0  0  0  0  0  0  0  0  0  0
   -3.7421   -7.2039    0.0000 C   0  0  0  0  0  0  0  0  0  0  0  0
   -3.7421   -8.0289    0.0000 C   0  0  0  0  0  0  0  0  0  0  0  0
   -4.4566   -8.4414    0.0000 C   0  0  0  0  0  0  0  0  0  0  0  0
   -5.1711   -8.0289    0.0000 C   0  0  0  0  0  0  0  0  0  0  0  0
   -5.1711   -7.2039    0.0000 C   0  0  0  0  0  0  0  0  0  0  0  0
   -4.4566   -9.2664    0.0000 C   0  0  0  0  0  0  0  0  0  0  0  0
   -5.2816   -9.2664    0.0000 O   0  0  0  0  0  0  0  0  0  0  0  0
   -4.4566  -10.0914    0.0000 C   0  0  0  0  0  0  0  0  0  0  0  0
   -3.7421  -10.5039    0.0000 C   0  0  0  0  0  0  0  0  0  0  0  0
   -3.7421  -11.3289    0.0000 C   0  0  0  0  0  0  0  0  0  0  0  0
   -4.4566  -11.7414    0.0000 C   0  0  0  0  0  0  0  0  0  0  0  0
   -5.1711  -11.3289    0.0000 C   0  0  0  0  0  0  0  0  0  0  0  0
   -5.1711  -10.5039    0.0000 C   0  0  0  0  0  0  0  0  0  0  0  0
   -3.6316   -9.2664    0.0000 C   0  0  0  0  0  0  0  0  0  0  0  0
   -3.2191   -8.5520    0.0000 C   0  0  0  0  0  0  0  0  0  0  0  0
   -2.3941   -8.5520    0.0000 C   0  0  0  0  0  0  0  0  0  0  0  0
   -1.9816   -9.2664    0.0000 C   0  0  0  0  0  0  0  0  0  0  0  0
   -2.3941   -9.9809    0.0000 C   0  0  0  0  0  0  0  0  0  0  0  0
   -3.2191   -9.9809    0.0000 C   0  0  0  0  0  0  0  0  0  0  0  0
  1  2  1  0  0  0  0
  2  3  1  0  0  0  0
  2  4  1  0  0  0  0
  2  5  1  0  0  0  0
  5  6  4  0  0  0  0
  6  7  4  0  0  0  0
  7  8  4  0  0  0  0
  8  9  4  0  0  0  0
  9 10  4  0  0  0  0
  5 10  4  0  0  0  0
  8 11  1  0  0  0  0
 11 12  1  0  0  0  0
 11 13  1  0  0  0  0
 13 14  1  0  0  0  0
 14 15  1  0  0  0  0
 15 16  1  0  0  0  0
 16 17  1  0  0  0  0
 17 18  1  0  0  0  0
 18 19  1  0  0  0  0
 19 20  1  0  0  0  0
 20 21  1  0  0  0  0
 16 21  1  0  0  0  0
 19 22  1  0  0  0  0
 22 23  1  0  0  0  0
 22 24  1  0  0  0  0
 24 25  4  0  0  0  0
 25 26  4  0  0  0  0
 26 27  4  0  0  0  0
 27 28  4  0  0  0  0
 28 29  4  0  0  0  0
 24 29  4  0  0  0  0
 22 30  1  0  0  0  0
 30 31  4  0  0  0  0
 31 32  4  0  0  0  0
 32 33  4  0  0  0  0
 33 34  4  0  0  0  0
 34 35  4  0  0  0  0
 30 35  4  0  0  0  0
M  END

> <ChembankId>
1590

> <SMILES>
CC(C)(C)c1ccc(cc1)C(O)CCCN2CCC(CC2)C(O)(c3ccccc3)c4ccccc4

> <InChI>
1/C32H41NO2/c1-31(2,3)26-18-16-25(17-19-26)30(34)15-10-22-33-23-20-29(21-24-33)32(35,27-11-6-4-7-12-27)28-13-8-5-9-14-28/h4-9,11-14,16-19,29-30,34-35H,10,15,20-24H2,1-3H3

$$$$
1607
  Marvin  11101114192D          

 29 31  0  0  1  0            999 V2000
    2.8579    0.0000    0.0000 C   0  0  0  0  0  0  0  0  0  0  0  0
    3.5724    0.4125    0.0000 C   0  0  0  0  0  0  0  0  0  0  0  0
    4.2868    0.0000    0.0000 C   0  0  2  0  0  0  0  0  0  0  0  0
    4.2868   -0.8250    0.0000 C   0  0  0  0  0  0  0  0  0  0  0  0
    5.0013    0.4125    0.0000 C   0  0  0  0  0  0  0  0  0  0  0  0
    5.0013    1.2375    0.0000 O   0  0  0  0  0  0  0  0  0  0  0  0
    5.7158    0.0000    0.0000 O   0  0  0  0  0  0  0  0  0  0  0  0
    6.4302    0.4125    0.0000 C   0  0  1  0  0  0  0  0  0  0  0  0
    6.4302    1.2375    0.0000 C   0  0  0  0  0  0  0  0  0  0  0  0
    7.1447    1.6500    0.0000 C   0  0  1  0  0  0  0  0  0  0  0  0
    7.1447    2.4750    0.0000 C   0  0  0  0  0  0  0  0  0  0  0  0
    7.8592    1.2375    0.0000 C   0  0  0  0  0  0  0  0  0  0  0  0
    7.8592    0.4125    0.0000 C   0  0  0  0  0  0  0  0  0  0  0  0
    8.5737    0.0000    0.0000 C   0  0  0  0  0  0  0  0  0  0  0  0
    8.5737   -0.8250    0.0000 C   0  0  0  0  0  0  0  0  0  0  0  0
    7.8592   -1.2375    0.0000 C   0  0  2  0  0  0  0  0  0  0  0  0
    7.8592   -2.0625    0.0000 C   0  0  0  0  0  0  0  0  0  0  0  0
    7.1447   -0.8250    0.0000 C   0  0  2  0  0  0  0  0  0  0  0  0
    6.4302   -1.2375    0.0000 C   0  0  0  0  0  0  0  0  0  0  0  0
    6.4302   -2.0625    0.0000 C   0  0  0  0  0  0  0  0  0  0  0  0
    5.7158   -2.4750    0.0000 C   0  0  2  0  0  0  0  0  0  0  0  0
    5.0013   -2.0625    0.0000 C   0  0  0  0  0  0  0  0  0  0  0  0
    4.2868   -2.4750    0.0000 C   0  0  1  0  0  0  0  0  0  0  0  0
    3.5724   -2.0625    0.0000 O   0  0  0  0  0  0  0  0  0  0  0  0
    4.2868   -3.3000    0.0000 C   0  0  0  0  0  0  0  0  0  0  0  0
    5.0013   -3.7125    0.0000 C   0  0  0  0  0  0  0  0  0  0  0  0
    5.0013   -4.5375    0.0000 O   0  0  0  0  0  0  0  0  0  0  0  0
    5.7158   -3.3000    0.0000 O   0  0  0  0  0  0  0  0  0  0  0  0
    7.1447    0.0000    0.0000 C   0  0  1  0  0  0  0  0  0  0  0  0
  1  2  1  0  0  0  0
  2  3  1  0  0  0  0
  3  4  1  1  0  0  0
  3  5  1  0  0  0  0
  5  6  2  0  0  0  0
  5  7  1  0  0  0  0
  8  7  1  1  0  0  0
  8  9  1  0  0  0  0
  9 10  1  0  0  0  0
 10 11  1  1  0  0  0
 10 12  1  0  0  0  0
 12 13  2  0  0  0  0
 13 14  1  0  0  0  0
 14 15  2  0  0  0  0
 15 16  1  0  0  0  0
 16 17  1  6  0  0  0
 16 18  1  0  0  0  0
 18 19  1  6  0  0  0
 19 20  1  0  0  0  0
 21 20  1  1  0  0  0
 21 22  1  0  0  0  0
 22 23  1  0  0  0  0
 23 24  1  6  0  0  0
 23 25  1  0  0  0  0
 25 26  1  0  0  0  0
 26 27  2  0  0  0  0
 26 28  1  0  0  0  0
 21 28  1  0  0  0  0
 18 29  1  0  0  0  0
  8 29  1  0  0  0  0
 29 13  1  1  0  0  0
M  END

> <ChembankId>
1607

> <SMILES>
CC[C@H](C)C(=O)O[C@H]1C[C@@H](C)C=C2C=C[C@H](C)[C@H](CC[C@@H]3C[C@@H](O)CC(=O)O3)[C@@H]12

> <InChI>
1/C24H36O5/c1-5-15(3)24(27)29-21-11-14(2)10-17-7-6-16(4)20(23(17)21)9-8-19-12-18(25)13-22(26)28-19/h6-7,10,14-16,18-21,23,25H,5,8-9,11-13H2,1-4H3

$$$$
1608
  Marvin  11101114192D          

 29 30  0  0  1  0            999 V2000
    2.9312   -6.7067    0.0000 N   0  0  0  0  0  0  0  0  0  0  0  0
    3.5724   -6.1875    0.0000 C   0  0  0  0  0  0  0  0  0  0  0  0
    4.3426   -6.4832    0.0000 C   0  0  0  0  0  0  0  0  0  0  0  0
    4.9837   -5.9640    0.0000 C   0  0  0  0  0  0  0  0  0  0  0  0
    5.7539   -6.2596    0.0000 C   0  0  0  0  0  0  0  0  0  0  0  0
    6.3951   -5.7404    0.0000 C   0  0  2  0  0  0  0  0  0  0  0  0
    7.0362   -6.2596    0.0000 N   0  0  0  0  0  0  0  0  0  0  0  0
    7.8064   -5.9640    0.0000 C   0  0  1  0  0  0  0  0  0  0  0  0
    8.4475   -6.4832    0.0000 C   0  0  0  0  0  0  0  0  0  0  0  0
    9.2178   -6.1875    0.0000 C   0  0  0  0  0  0  0  0  0  0  0  0
    9.8589   -6.7067    0.0000 C   0  0  0  0  0  0  0  0  0  0  0  0
   10.6291   -6.4110    0.0000 C   0  0  0  0  0  0  0  0  0  0  0  0
   11.2702   -6.9302    0.0000 C   0  0  0  0  0  0  0  0  0  0  0  0
   11.1412   -7.7451    0.0000 C   0  0  0  0  0  0  0  0  0  0  0  0
   10.3710   -8.0407    0.0000 C   0  0  0  0  0  0  0  0  0  0  0  0
    9.7298   -7.5215    0.0000 C   0  0  0  0  0  0  0  0  0  0  0  0
    7.9355   -5.1491    0.0000 C   0  0  0  0  0  0  0  0  0  0  0  0
    8.7057   -4.8535    0.0000 O   0  0  0  0  0  0  0  0  0  0  0  0
    8.2311   -4.3789    0.0000 O   0  0  0  0  0  0  0  0  0  0  0  0
    6.2660   -4.9256    0.0000 C   0  0  0  0  0  0  0  0  0  0  0  0
    5.4958   -4.6299    0.0000 O   0  0  0  0  0  0  0  0  0  0  0  0
    6.9071   -4.4064    0.0000 N   0  0  0  0  0  0  0  0  0  0  0  0
    7.7040   -4.6199    0.0000 C   0  0  0  0  0  0  0  0  0  0  0  0
    8.1534   -3.9280    0.0000 C   0  0  0  0  0  0  0  0  0  0  0  0
    7.6342   -3.2869    0.0000 C   0  0  0  0  0  0  0  0  0  0  0  0
    6.8640   -3.5825    0.0000 C   0  0  1  0  0  0  0  0  0  0  0  0
    6.1721   -3.1332    0.0000 C   0  0  0  0  0  0  0  0  0  0  0  0
    5.4370   -3.5077    0.0000 O   0  0  0  0  0  0  0  0  0  0  0  0
    6.2152   -2.3093    0.0000 O   0  0  0  0  0  0  0  0  0  0  0  0
  1  2  1  0  0  0  0
  2  3  1  0  0  0  0
  3  4  1  0  0  0  0
  4  5  1  0  0  0  0
  5  6  1  0  0  0  0
  6  7  1  1  0  0  0
  8  7  1  6  0  0  0
  8  9  1  0  0  0  0
  9 10  1  0  0  0  0
 10 11  1  0  0  0  0
 11 12  4  0  0  0  0
 12 13  4  0  0  0  0
 13 14  4  0  0  0  0
 14 15  4  0  0  0  0
 15 16  4  0  0  0  0
 11 16  4  0  0  0  0
  8 17  1  0  0  0  0
 17 18  2  0  0  0  0
 17 19  1  0  0  0  0
  6 20  1  0  0  0  0
 20 21  2  0  0  0  0
 20 22  1  0  0  0  0
 22 23  1  0  0  0  0
 23 24  1  0  0  0  0
 24 25  1  0  0  0  0
 25 26  1  0  0  0  0
 22 26  1  0  0  0  0
 26 27  1  6  0  0  0
 27 28  2  0  0  0  0
 27 29  1  0  0  0  0
M  END

> <ChembankId>
1608

> <SMILES>
NCCCC[C@H](N[C@@H](CCc1ccccc1)C(=O)O)C(=O)N2CCC[C@H]2C(=O)O

> <InChI>
1/C21H31N3O5/c22-13-5-4-9-16(19(25)24-14-6-10-18(24)21(28)29)23-17(20(26)27)12-11-15-7-2-1-3-8-15/h1-3,7-8,16-18,23H,4-6,9-14,22H2,(H,26,27)(H,28,29)

$$$$
3047
  Marvin  11101114192D          

 18 20  0  0  1  0            999 V2000
    1.5452    0.1607    0.0000 C   0  0  0  0  0  0  0  0  0  0  0  0
    2.1752   -0.3719    0.0000 C   0  0  1  0  0  0  0  0  0  0  0  0
    2.9765   -0.1753    0.0000 C   0  0  2  0  0  0  0  0  0  0  0  0
    3.3664    0.5517    0.0000 C   0  0  0  0  0  0  0  0  0  0  0  0
    4.1910    0.5775    0.0000 C   0  0  0  0  0  0  0  0  0  0  0  0
    4.6256   -0.1238    0.0000 C   0  0  1  0  0  0  0  0  0  0  0  0
    5.0156    0.6032    0.0000 C   0  0  0  0  0  0  0  0  0  0  0  0
    5.4502   -0.0980    0.0000 C   0  0  0  0  0  0  0  0  0  0  0  0
    5.8849   -0.7992    0.0000 C   0  0  0  0  0  0  0  0  0  0  0  0
    5.4949   -1.5262    0.0000 C   0  0  0  0  0  0  0  0  0  0  0  0
    5.9295   -2.2275    0.0000 O   0  0  0  0  0  0  0  0  0  0  0  0
    4.6703   -1.5520    0.0000 C   0  0  0  0  0  0  0  0  0  0  0  0
    4.2357   -0.8508    0.0000 C   0  0  0  0  0  0  0  0  0  0  0  0
    3.4111   -0.8765    0.0000 C   0  0  1  0  0  0  0  0  0  0  0  0
    2.8784   -1.5066    0.0000 O   0  0  0  0  0  0  0  0  0  0  0  0
    2.1147   -1.1947    0.0000 C   0  0  0  0  0  0  0  0  0  0  0  0
    1.4134   -1.6293    0.0000 O   0  0  0  0  0  0  0  0  0  0  0  0
    4.2803   -2.2790    0.0000 C   0  0  0  0  0  0  0  0  0  0  0  0
  2  1  1  1  0  0  0
  2  3  1  0  0  0  0
  3  4  1  6  0  0  0
  4  5  1  0  0  0  0
  5  6  1  0  0  0  0
  6  7  1  6  0  0  0
  6  8  1  0  0  0  0
  8  9  2  0  0  0  0
  9 10  1  0  0  0  0
 10 11  2  0  0  0  0
 10 12  1  0  0  0  0
 12 13  2  0  0  0  0
  6 13  1  0  0  0  0
 14 13  1  1  0  0  0
  3 14  1  0  0  0  0
 14 15  1  0  0  0  0
 15 16  1  0  0  0  0
  2 16  1  0  0  0  0
 16 17  2  0  0  0  0
 12 18  1  0  0  0  0
M  END

> <ChembankId>
3047

> <SMILES>
C[C@H]1[C@@H]2CC[C@@]3(C)C=CC(=O)C(=C3[C@H]2OC1=O)C

> <InChI>
1/C15H18O3/c1-8-10-4-6-15(3)7-5-11(16)9(2)12(15)13(10)18-14(8)17/h5,7-8,10,13H,4,6H2,1-3H3

$$$$
2359
  Marvin  11101114192D          

 26 30  0  0  1  0            999 V2000
    5.3839   -3.9139    0.0000 C   0  0  0  0  0  0  0  0  0  0  0  0
    4.5602   -3.8668    0.0000 C   0  0  0  0  0  0  0  0  0  0  0  0
    4.1892   -3.1299    0.0000 O   0  0  0  0  0  0  0  0  0  0  0  0
    3.3656   -3.0828    0.0000 C   0  0  0  0  0  0  0  0  0  0  0  0
    2.9129   -3.7725    0.0000 O   0  0  0  0  0  0  0  0  0  0  0  0
    2.9946   -2.3459    0.0000 C   0  0  0  0  0  0  0  0  0  0  0  0
    2.1709   -2.2988    0.0000 C   0  0  0  0  0  0  0  0  0  0  0  0
    1.7999   -1.5619    0.0000 C   0  0  2  0  0  0  0  0  0  0  0  0
    1.3473   -2.2516    0.0000 C   0  0  0  0  0  0  0  0  0  0  0  0
    0.5236   -2.2045    0.0000 C   0  0  0  0  0  0  0  0  0  0  0  0
    0.9763   -1.5147    0.0000 C   0  0  0  0  0  0  0  0  0  0  0  0
    0.6053   -0.7779    0.0000 C   0  0  0  0  0  0  0  0  0  0  0  0
    1.0579   -0.0881    0.0000 C   0  0  0  0  0  0  0  0  0  0  0  0
    1.8816   -0.1353    0.0000 N   0  0  0  0  0  0  0  0  0  0  0  0
    2.3343    0.5545    0.0000 C   0  0  0  0  0  0  0  0  0  0  0  0
    3.1579    0.5073    0.0000 C   0  0  0  0  0  0  0  0  0  0  0  0
    3.5289   -0.2296    0.0000 C   0  0  0  0  0  0  0  0  0  0  0  0
    3.0762   -0.9193    0.0000 C   0  0  0  0  0  0  0  0  0  0  0  0
    2.2526   -0.8721    0.0000 C   0  0  2  0  0  0  0  0  0  0  0  0
    3.4472   -1.6562    0.0000 N   0  0  0  0  0  0  0  0  0  0  0  0
    4.3640   -1.2710    0.0000 C   0  0  0  0  0  0  0  0  0  0  0  0
    5.0972   -1.6491    0.0000 C   0  0  0  0  0  0  0  0  0  0  0  0
    5.7913   -1.2031    0.0000 C   0  0  0  0  0  0  0  0  0  0  0  0
    5.7521   -0.3790    0.0000 C   0  0  0  0  0  0  0  0  0  0  0  0
    5.0188   -0.0009    0.0000 C   0  0  0  0  0  0  0  0  0  0  0  0
    4.3248   -0.4469    0.0000 C   0  0  0  0  0  0  0  0  0  0  0  0
  1  2  1  0  0  0  0
  2  3  1  0  0  0  0
  3  4  1  0  0  0  0
  4  5  2  0  0  0  0
  4  6  1  0  0  0  0
  6  7  2  0  0  0  0
  7  8  1  0  0  0  0
  8  9  1  1  0  0  0
  9 10  1  0  0  0  0
  8 11  1  0  0  0  0
 11 12  1  0  0  0  0
 12 13  1  0  0  0  0
 13 14  1  0  0  0  0
 14 15  1  0  0  0  0
 15 16  1  0  0  0  0
 16 17  1  0  0  0  0
 17 18  4  0  0  0  0
 19 18  1  6  0  0  0
 14 19  1  0  0  0  0
  8 19  1  0  0  0  0
 18 20  4  0  0  0  0
  6 20  1  0  0  0  0
 20 21  4  0  0  0  0
 21 22  4  0  0  0  0
 22 23  4  0  0  0  0
 23 24  4  0  0  0  0
 24 25  4  0  0  0  0
 25 26  4  0  0  0  0
 17 26  4  0  0  0  0
 21 26  4  0  0  0  0
M  END

> <ChembankId>
2359

> <SMILES>
CCOC(=O)C1=C[C@]2(CC)CCCN3CCc4c([C@@H]32)n1c5ccccc45

> <InChI>
1/C22H26N2O2/c1-3-22-11-7-12-23-13-10-16-15-8-5-6-9-17(15)24(19(16)20(22)23)18(14-22)21(25)26-4-2/h5-6,8-9,14,20H,3-4,7,10-13H2,1-2H3

$$$$
2060276
  Marvin  11101114192D          

 31 36  0  0  1  0            999 V2000
   -1.4750    0.6826    0.0000 C   0  0  0  0  0  0  0  0  0  0  0  0
   -1.1804   -0.1191    0.0000 C   0  0  2  0  0  0  0  0  0  0  0  0
   -1.8592   -0.5880    0.0000 C   0  0  0  0  0  0  0  0  0  0  0  0
   -2.6888   -0.4207    0.0000 O   0  0  0  0  0  0  0  0  0  0  0  0
   -1.6231   -1.3785    0.0000 O   0  0  0  0  0  0  0  0  0  0  0  0
   -0.7983   -1.3981    0.0000 C   0  0  0  0  0  0  0  0  0  0  0  0
    0.0336   -1.7562    0.0000 C   0  0  2  0  0  0  0  0  0  0  0  0
   -0.0851   -2.7023    0.0000 O   0  0  0  0  0  0  0  0  0  0  0  0
    0.7729   -1.3915    0.0000 C   0  0  0  0  0  0  0  0  0  0  0  0
    0.5244   -2.2100    0.0000 C   0  0  2  0  0  0  0  0  0  0  0  0
   -0.3471   -2.1181    0.0000 O   0  0  0  0  0  0  0  0  0  0  0  0
   -0.2972   -1.2072    0.0000 C   0  0  0  0  0  0  0  0  0  0  0  0
   -1.1317   -0.8390    0.0000 O   0  0  0  0  0  0  0  0  0  0  0  0
    0.3485   -0.6894    0.0000 C   0  0  2  0  0  0  0  0  0  0  0  0
    0.9247   -0.0766    0.0000 O   0  0  0  0  0  0  0  0  0  0  0  0
    1.6687   -0.4464    0.0000 C   0  0  2  0  0  0  0  0  0  0  0  0
    2.4345   -0.1271    0.0000 O   0  0  0  0  0  0  0  0  0  0  0  0
    2.9562   -0.7672    0.0000 C   0  0  0  0  0  0  0  0  0  0  0  0
    3.6808   -0.3370    0.0000 O   0  0  0  0  0  0  0  0  0  0  0  0
    2.4899   -1.4521    0.0000 C   0  0  2  0  0  0  0  0  0  0  0  0
    3.3515   -1.6398    0.0000 O   0  0  0  0  0  0  0  0  0  0  0  0
    1.6359   -1.3108    0.0000 C   0  0  2  0  0  0  0  0  0  0  0  0
    1.8436   -2.1618    0.0000 C   0  0  1  0  0  0  0  0  0  0  0  0
    1.2027   -2.6849    0.0000 C   0  0  1  0  0  0  0  0  0  0  0  0
    1.0549   -3.5210    0.0000 O   0  0  0  0  0  0  0  0  0  0  0  0
    2.5042   -2.7761    0.0000 C   0  0  0  0  0  0  0  0  0  0  0  0
    3.1128   -3.3433    0.0000 C   0  0  0  0  0  0  0  0  0  0  0  0
    2.3640   -3.5645    0.0000 C   0  0  0  0  0  0  0  0  0  0  0  0
    3.3240   -2.4595    0.0000 C   0  0  0  0  0  0  0  0  0  0  0  0
   -0.5247   -0.6198    0.0000 C   0  0  1  0  0  0  0  0  0  0  0  0
   -0.2610    0.2151    0.0000 O   0  0  0  0  0  0  0  0  0  0  0  0
  2  1  1  1  0  0  0
  2  3  1  0  0  0  0
  3  4  2  0  0  0  0
  3  5  1  0  0  0  0
  5  6  1  0  0  0  0
  6  7  1  0  0  0  0
  7  8  1  1  0  0  0
  7  9  1  0  0  0  0
  9 10  1  0  0  0  0
 10 11  1  1  0  0  0
 11 12  1  0  0  0  0
 12 13  2  0  0  0  0
 12 14  1  0  0  0  0
  9 14  1  0  0  0  0
 14 15  1  6  0  0  0
 16 15  1  6  0  0  0
 16 17  1  0  0  0  0
 17 18  1  0  0  0  0
 18 19  2  0  0  0  0
 18 20  1  0  0  0  0
 20 21  1  6  0  0  0
 20 22  1  0  0  0  0
 16 22  1  0  0  0  0
 22  9  1  6  0  0  0
 22 23  1  0  0  0  0
 23 24  1  0  0  0  0
 10 24  1  0  0  0  0
 24 25  1  1  0  0  0
 23 26  1  6  0  0  0
 26 27  1  0  0  0  0
 26 28  1  0  0  0  0
 26 29  1  0  0  0  0
 14 30  1  0  0  0  0
  2 30  1  0  0  0  0
  6 30  1  0  0  0  0
 30 31  1  1  0  0  0
M  END

> <ChembankId>
2060276

> <SMILES>
C[C@@H]1C(=O)OC2[C@H](O)C34[C@@H]5OC(=O)[C@@]4(O[C@@H]6OC(=O)[C@H](O)[C@@]63[C@@H]([C@H]5O)C(C)(C)C)[C@@]12O

> <InChI>
1/C20H24O11/c1-5-12(24)28-11-8(22)18-10-6(21)7(16(2,3)4)17(18)9(23)13(25)30-15(17)31-20(18,14(26)29-10)19(5,11)27/h5-11,15,21-23,27H,1-4H3

$$$$
976
  Marvin  11101114192D          

 20 22  0  0  1  0            999 V2000
   -2.5844   -1.0190    0.0000 C   0  0  0  0  0  0  0  0  0  0  0  0
   -1.7810   -1.2064    0.0000 N   0  0  0  0  0  0  0  0  0  0  0  0
   -1.2170   -0.6043    0.0000 C   0  0  0  0  0  0  0  0  0  0  0  0
   -1.4564    0.1852    0.0000 O   0  0  0  0  0  0  0  0  0  0  0  0
   -0.4136   -0.7917    0.0000 O   0  0  0  0  0  0  0  0  0  0  0  0
    0.1505   -0.1896    0.0000 C   0  0  0  0  0  0  0  0  0  0  0  0
   -0.0890    0.5999    0.0000 C   0  0  0  0  0  0  0  0  0  0  0  0
    0.4750    1.2020    0.0000 C   0  0  0  0  0  0  0  0  0  0  0  0
    1.2785    1.0146    0.0000 C   0  0  0  0  0  0  0  0  0  0  0  0
    1.9554    1.4863    0.0000 N   0  0  0  0  0  0  0  0  0  0  0  0
    1.9716    2.3111    0.0000 C   0  0  0  0  0  0  0  0  0  0  0  0
    2.6131    0.9883    0.0000 C   0  0  1  0  0  0  0  0  0  0  0  0
    3.4379    0.9720    0.0000 N   0  0  0  0  0  0  0  0  0  0  0  0
    3.9359    1.6298    0.0000 C   0  0  0  0  0  0  0  0  0  0  0  0
    3.6774    0.1825    0.0000 C   0  0  0  0  0  0  0  0  0  0  0  0
    3.0005   -0.2892    0.0000 C   0  0  0  0  0  0  0  0  0  0  0  0
    2.3427    0.2088    0.0000 C   0  0  2  0  0  0  0  0  0  0  0  0
    2.0724   -0.5706    0.0000 C   0  0  0  0  0  0  0  0  0  0  0  0
    1.5179    0.2251    0.0000 C   0  0  0  0  0  0  0  0  0  0  0  0
    0.9539   -0.3770    0.0000 C   0  0  0  0  0  0  0  0  0  0  0  0
  1  2  1  0  0  0  0
  2  3  1  0  0  0  0
  3  4  2  0  0  0  0
  3  5  1  0  0  0  0
  5  6  1  0  0  0  0
  6  7  4  0  0  0  0
  7  8  4  0  0  0  0
  8  9  4  0  0  0  0
  9 10  1  0  0  0  0
 10 11  1  0  0  0  0
 12 10  1  1  0  0  0
 12 13  1  0  0  0  0
 13 14  1  0  0  0  0
 13 15  1  0  0  0  0
 15 16  1  0  0  0  0
 16 17  1  0  0  0  0
 12 17  1  0  0  0  0
 17 18  1  6  0  0  0
 17 19  1  0  0  0  0
  9 19  4  0  0  0  0
 19 20  4  0  0  0  0
  6 20  4  0  0  0  0
M  END

> <ChembankId>
976

> <SMILES>
CNC(=O)Oc1ccc2N(C)[C@H]3N(C)CC[C@@]3(C)c2c1

> <InChI>
1/C15H21N3O2/c1-15-7-8-17(3)13(15)18(4)12-6-5-10(9-11(12)15)20-14(19)16-2/h5-6,9,13H,7-8H2,1-4H3,(H,16,19)

$$$$
2269
  Marvin  11101114192D          

 17 18  0  0  0  0            999 V2000
    1.4289   -1.6500    0.0000 O   0  0  0  0  0  0  0  0  0  0  0  0
    1.4289   -2.4750    0.0000 C   0  0  0  0  0  0  0  0  0  0  0  0
    2.1434   -2.8875    0.0000 C   0  0  0  0  0  0  0  0  0  0  0  0
    2.1434   -3.7125    0.0000 C   0  0  0  0  0  0  0  0  0  0  0  0
    1.4289   -4.1250    0.0000 C   0  0  0  0  0  0  0  0  0  0  0  0
    1.4289   -4.9500    0.0000 C   0  0  0  0  0  0  0  0  0  0  0  0
    2.1434   -5.3625    0.0000 C   0  0  0  0  0  0  0  0  0  0  0  0
    2.1434   -6.1875    0.0000 C   0  0  0  0  0  0  0  0  0  0  0  0
    2.8579   -6.6000    0.0000 C   0  0  0  0  0  0  0  0  0  0  0  0
    2.8579   -7.4250    0.0000 C   0  0  0  0  0  0  0  0  0  0  0  0
    3.5724   -7.8375    0.0000 O   0  0  0  0  0  0  0  0  0  0  0  0
    2.1434   -7.8375    0.0000 C   0  0  0  0  0  0  0  0  0  0  0  0
    1.4289   -7.4250    0.0000 C   0  0  0  0  0  0  0  0  0  0  0  0
    0.7145   -7.8375    0.0000 O   0  0  0  0  0  0  0  0  0  0  0  0
    1.4289   -6.6000    0.0000 C   0  0  0  0  0  0  0  0  0  0  0  0
    0.7145   -3.7125    0.0000 C   0  0  0  0  0  0  0  0  0  0  0  0
    0.7145   -2.8875    0.0000 C   0  0  0  0  0  0  0  0  0  0  0  0
  1  2  1  0  0  0  0
  2  3  4  0  0  0  0
  3  4  4  0  0  0  0
  4  5  4  0  0  0  0
  5  6  1  0  0  0  0
  6  7  2  0  0  0  0
  7  8  1  0  0  0  0
  8  9  4  0  0  0  0
  9 10  4  0  0  0  0
 10 11  1  0  0  0  0
 10 12  4  0  0  0  0
 12 13  4  0  0  0  0
 13 14  1  0  0  0  0
 13 15  4  0  0  0  0
  8 15  4  0  0  0  0
  5 16  4  0  0  0  0
 16 17  4  0  0  0  0
  2 17  4  0  0  0  0
M  END

> <ChembankId>
2269

> <SMILES>
Oc1ccc(/C=C/c2cc(O)cc(O)c2)cc1

> <InChI>
1/C14H12O3/c15-12-5-3-10(4-6-12)1-2-11-7-13(16)9-14(17)8-11/h1-9,15-17H

$$$$
1113841
  Marvin  11101114192D          

 21 23  0  0  0  0            999 V2000
    0.0000   -1.6500    0.0000 O   0  0  0  0  0  0  0  0  0  0  0  0
    0.7145   -1.2375    0.0000 C   0  0  0  0  0  0  0  0  0  0  0  0
    0.7145   -0.4125    0.0000 C   0  0  0  0  0  0  0  0  0  0  0  0
    1.4289    0.0000    0.0000 C   0  0  0  0  0  0  0  0  0  0  0  0
    2.1434   -0.4125    0.0000 C   0  0  0  0  0  0  0  0  0  0  0  0
    2.8579    0.0000    0.0000 C   0  0  0  0  0  0  0  0  0  0  0  0
    2.8579    0.8250    0.0000 O   0  0  0  0  0  0  0  0  0  0  0  0
    3.5724   -0.4125    0.0000 C   0  0  0  0  0  0  0  0  0  0  0  0
    4.2868   -0.0000    0.0000 O   0  0  0  0  0  0  0  0  0  0  0  0
    3.5724   -1.2375    0.0000 C   0  0  0  0  0  0  0  0  0  0  0  0
    2.8579   -1.6500    0.0000 O   0  0  0  0  0  0  0  0  0  0  0  0
    2.1434   -1.2375    0.0000 C   0  0  0  0  0  0  0  0  0  0  0  0
    1.4289   -1.6500    0.0000 C   0  0  0  0  0  0  0  0  0  0  0  0
    4.2868   -1.6500    0.0000 C   0  0  0  0  0  0  0  0  0  0  0  0
    5.0013   -1.2375    0.0000 C   0  0  0  0  0  0  0  0  0  0  0  0
    5.7158   -1.6500    0.0000 C   0  0  0  0  0  0  0  0  0  0  0  0
    5.7158   -2.4750    0.0000 C   0  0  0  0  0  0  0  0  0  0  0  0
    6.4302   -2.8875    0.0000 O   0  0  0  0  0  0  0  0  0  0  0  0
    5.0013   -2.8875    0.0000 C   0  0  0  0  0  0  0  0  0  0  0  0
    5.0013   -3.7125    0.0000 O   0  0  0  0  0  0  0  0  0  0  0  0
    4.2868   -2.4750    0.0000 C   0  0  0  0  0  0  0  0  0  0  0  0
  1  2  1  0  0  0  0
  2  3  4  0  0  0  0
  3  4  4  0  0  0  0
  4  5  4  0  0  0  0
  5  6  4  0  0  0  0
  6  7  2  0  0  0  0
  6  8  4  0  0  0  0
  8  9  1  0  0  0  0
  8 10  4  0  0  0  0
 10 11  4  0  0  0  0
 11 12  4  0  0  0  0
  5 12  4  0  0  0  0
 12 13  4  0  0  0  0
  2 13  4  0  0  0  0
 10 14  1  0  0  0  0
 14 15  4  0  0  0  0
 15 16  4  0  0  0  0
 16 17  4  0  0  0  0
 17 18  1  0  0  0  0
 17 19  4  0  0  0  0
 19 20  1  0  0  0  0
 19 21  4  0  0  0  0
 14 21  4  0  0  0  0
M  END

> <ChembankId>
1113841

> <SMILES>
Oc1ccc2c(=O)c(O)c(oc2c1)c3ccc(O)c(O)c3

> <InChI>
1/C15H10O6/c16-8-2-3-9-12(6-8)21-15(14(20)13(9)19)7-1-4-10(17)11(18)5-7/h1-6,16-18,20H

$$$$
2572
  Marvin  11101114192D          

 45 51  0  0  1  0            999 V2000
    0.0621   -5.2426    0.0000 C   0  0  0  0  0  0  0  0  0  0  0  0
   -0.4500   -4.5957    0.0000 O   0  0  0  0  0  0  0  0  0  0  0  0
   -0.1458   -3.8289    0.0000 C   0  0  0  0  0  0  0  0  0  0  0  0
   -0.6567   -3.1844    0.0000 C   0  0  0  0  0  0  0  0  0  0  0  0
   -0.3431   -2.4076    0.0000 C   0  0  0  0  0  0  0  0  0  0  0  0
   -0.9220   -1.8106    0.0000 C   0  0  0  0  0  0  0  0  0  0  0  0
   -0.7021   -1.0196    0.0000 C   0  0  0  0  0  0  0  0  0  0  0  0
    0.1067   -0.8203    0.0000 N   0  3  0  0  0  0  0  0  0  0  0  0
   -0.2426   -0.0729    0.0000 C   0  0  0  0  0  0  0  0  0  0  0  0
    0.7719   -0.3324    0.0000 C   0  0  0  0  0  0  0  0  0  0  0  0
    0.7260   -1.3885    0.0000 C   0  0  2  0  0  0  0  0  0  0  0  0
    1.3175   -0.7334    0.0000 C   0  0  0  0  0  0  0  0  0  0  0  0
    1.6354    0.0873    0.0000 C   0  0  0  0  0  0  0  0  0  0  0  0
    1.3550    0.8961    0.0000 C   0  0  0  0  0  0  0  0  0  0  0  0
    1.8747    1.5555    0.0000 C   0  0  0  0  0  0  0  0  0  0  0  0
    2.6944    1.4189    0.0000 C   0  0  0  0  0  0  0  0  0  0  0  0
    3.2055    2.0665    0.0000 O   0  0  0  0  0  0  0  0  0  0  0  0
    3.0211    0.6456    0.0000 C   0  0  0  0  0  0  0  0  0  0  0  0
    3.8430    0.4022    0.0000 O   0  0  0  0  0  0  0  0  0  0  0  0
    4.6186    0.0319    0.0000 C   0  0  0  0  0  0  0  0  0  0  0  0
    4.6753   -0.8085    0.0000 C   0  0  0  0  0  0  0  0  0  0  0  0
    5.4045   -1.2401    0.0000 C   0  0  0  0  0  0  0  0  0  0  0  0
    5.4692   -2.1017    0.0000 C   0  0  2  0  0  0  0  0  0  0  0  0
    5.0009   -2.8274    0.0000 C   0  0  0  0  0  0  0  0  0  0  0  0
    4.3359   -3.3829    0.0000 C   0  0  0  0  0  0  0  0  0  0  0  0
    3.9555   -4.1391    0.0000 C   0  0  0  0  0  0  0  0  0  0  0  0
    3.1247   -4.2300    0.0000 C   0  0  0  0  0  0  0  0  0  0  0  0
    2.6296   -3.5419    0.0000 C   0  0  0  0  0  0  0  0  0  0  0  0
    1.8310   -3.2398    0.0000 O   0  0  0  0  0  0  0  0  0  0  0  0
    1.0143   -2.9370    0.0000 C   0  0  0  0  0  0  0  0  0  0  0  0
    0.6721   -3.7093    0.0000 C   0  0  0  0  0  0  0  0  0  0  0  0
    1.1710   -4.3664    0.0000 O   0  0  0  0  0  0  0  0  0  0  0  0
    0.4906   -2.2405    0.0000 C   0  0  0  0  0  0  0  0  0  0  0  0
    2.9912   -2.7910    0.0000 C   0  0  0  0  0  0  0  0  0  0  0  0
    3.8109   -2.7250    0.0000 C   0  0  0  0  0  0  0  0  0  0  0  0
    6.2361   -2.4430    0.0000 N   0  0  0  0  0  0  0  0  0  0  0  0
    6.3093   -3.2647    0.0000 C   0  0  0  0  0  0  0  0  0  0  0  0
    6.9233   -1.9766    0.0000 C   0  0  0  0  0  0  0  0  0  0  0  0
    6.8576   -1.1506    0.0000 C   0  0  0  0  0  0  0  0  0  0  0  0
    6.1085   -0.7751    0.0000 C   0  0  0  0  0  0  0  0  0  0  0  0
    6.0799    0.0650    0.0000 C   0  0  0  0  0  0  0  0  0  0  0  0
    5.3448    0.4521    0.0000 C   0  0  0  0  0  0  0  0  0  0  0  0
    5.3283    1.2769    0.0000 O   0  0  0  0  0  0  0  0  0  0  0  0
    4.6058    1.6751    0.0000 C   0  0  0  0  0  0  0  0  0  0  0  0
    2.4709    0.0051    0.0000 C   0  0  0  0  0  0  0  0  0  0  0  0
  1  2  1  0  0  0  0
  2  3  1  0  0  0  0
  3  4  4  0  0  0  0
  4  5  4  0  0  0  0
  5  6  1  0  0  0  0
  6  7  1  0  0  0  0
  7  8  1  0  0  0  0
  8  9  1  0  0  0  0
  8 10  1  0  0  0  0
 11  8  1  6  0  0  0
 11 12  1  0  0  0  0
 12 13  1  0  0  0  0
 13 14  4  0  0  0  0
 14 15  4  0  0  0  0
 15 16  4  0  0  0  0
 16 17  1  0  0  0  0
 16 18  4  0  0  0  0
 18 19  1  0  0  0  0
 19 20  1  0  0  0  0
 20 21  4  0  0  0  0
 21 22  4  0  0  0  0
 22 23  1  0  0  0  0
 23 24  1  0  0  0  0
 24 25  1  0  0  0  0
 25 26  4  0  0  0  0
 26 27  4  0  0  0  0
 27 28  4  0  0  0  0
 28 29  1  0  0  0  0
 29 30  1  0  0  0  0
 30 31  4  0  0  0  0
  3 31  4  0  0  0  0
 31 32  1  0  0  0  0
 30 33  4  0  0  0  0
 11 33  1  0  0  0  0
  5 33  4  0  0  0  0
 28 34  4  0  0  0  0
 34 35  4  0  0  0  0
 25 35  4  0  0  0  0
 23 36  1  1  0  0  0
 36 37  1  0  0  0  0
 36 38  1  0  0  0  0
 38 39  1  0  0  0  0
 39 40  1  0  0  0  0
 22 40  4  0  0  0  0
 40 41  4  0  0  0  0
 41 42  4  0  0  0  0
 20 42  4  0  0  0  0
 42 43  1  0  0  0  0
 43 44  1  0  0  0  0
 18 45  4  0  0  0  0
 13 45  4  0  0  0  0
M  CHG  1   8   1
M  END

> <ChembankId>
2572

> <SMILES>
COc1cc2CC[N+](C)(C)[C@@H]3Cc4ccc(O)c(Oc5cc6[C@H](Cc7ccc(Oc(c1O)c32)cc7)N(C)CCc6cc5OC)c4

> <InChI>
1/C37H40N2O6/c1-38-14-12-24-19-32(42-4)33-21-27(24)28(38)16-22-6-9-26(10-7-22)44-37-35-25(20-34(43-5)36(37)41)13-15-39(2,3)29(35)17-23-8-11-30(40)31(18-23)45-33/h6-11,18-21,28-29H,12-17H2,1-5H3,(H-,40,41)/p+1

$$$$
1978
  Marvin  11101114192D          

 13 13  0  0  0  0            999 V2000
    4.2868   -0.0000    0.0000 O   0  0  0  0  0  0  0  0  0  0  0  0
    3.5724   -0.4125    0.0000 C   0  0  0  0  0  0  0  0  0  0  0  0
    3.5724   -1.2375    0.0000 O   0  0  0  0  0  0  0  0  0  0  0  0
    2.8579   -0.0000    0.0000 C   0  0  0  0  0  0  0  0  0  0  0  0
    2.1434   -0.4125    0.0000 C   0  0  0  0  0  0  0  0  0  0  0  0
    1.4289   -0.0000    0.0000 C   0  0  0  0  0  0  0  0  0  0  0  0
    0.7145   -0.4125    0.0000 C   0  0  0  0  0  0  0  0  0  0  0  0
    0.0000   -0.0000    0.0000 C   0  0  0  0  0  0  0  0  0  0  0  0
    0.0000    0.8250    0.0000 C   0  0  0  0  0  0  0  0  0  0  0  0
   -0.7145    1.2375    0.0000 O   0  0  0  0  0  0  0  0  0  0  0  0
    0.7145    1.2375    0.0000 C   0  0  0  0  0  0  0  0  0  0  0  0
    0.7145    2.0625    0.0000 O   0  0  0  0  0  0  0  0  0  0  0  0
    1.4289    0.8250    0.0000 C   0  0  0  0  0  0  0  0  0  0  0  0
  1  2  1  0  0  0  0
  2  3  2  0  0  0  0
  2  4  1  0  0  0  0
  4  5  2  0  0  0  0
  5  6  1  0  0  0  0
  6  7  4  0  0  0  0
  7  8  4  0  0  0  0
  8  9  4  0  0  0  0
  9 10  1  0  0  0  0
  9 11  4  0  0  0  0
 11 12  1  0  0  0  0
 11 13  4  0  0  0  0
  6 13  4  0  0  0  0
M  END

> <ChembankId>
1978

> <SMILES>
OC(=O)/C=C/c1ccc(O)c(O)c1

> <InChI>
1/C9H8O4/c10-7-3-1-6(5-8(7)11)2-4-9(12)13/h1-5,10-11H,(H,12,13)

$$$$
2181
  Marvin  11101114192D          

 23 25  0  0  0  0            999 V2000
    0.0000   -1.6500    0.0000 O   0  0  0  0  0  0  0  0  0  0  0  0
    0.7145   -1.2375    0.0000 C   0  0  0  0  0  0  0  0  0  0  0  0
    0.7145   -0.4125    0.0000 C   0  0  0  0  0  0  0  0  0  0  0  0
    1.4289    0.0000    0.0000 C   0  0  0  0  0  0  0  0  0  0  0  0
    1.4289    0.8250    0.0000 O   0  0  0  0  0  0  0  0  0  0  0  0
    2.1434   -0.4125    0.0000 C   0  0  0  0  0  0  0  0  0  0  0  0
    2.8579    0.0000    0.0000 C   0  0  0  0  0  0  0  0  0  0  0  0
    2.8579    0.8250    0.0000 O   0  0  0  0  0  0  0  0  0  0  0  0
    3.5724   -0.4125    0.0000 C   0  0  0  0  0  0  0  0  0  0  0  0
    4.2868   -0.0000    0.0000 O   0  0  0  0  0  0  0  0  0  0  0  0
    3.5724   -1.2375    0.0000 C   0  0  0  0  0  0  0  0  0  0  0  0
    2.8579   -1.6500    0.0000 O   0  0  0  0  0  0  0  0  0  0  0  0
    2.1434   -1.2375    0.0000 C   0  0  0  0  0  0  0  0  0  0  0  0
    1.4289   -1.6500    0.0000 C   0  0  0  0  0  0  0  0  0  0  0  0
    4.2868   -1.6500    0.0000 C   0  0  0  0  0  0  0  0  0  0  0  0
    5.0013   -1.2375    0.0000 C   0  0  0  0  0  0  0  0  0  0  0  0
    5.7158   -1.6500    0.0000 C   0  0  0  0  0  0  0  0  0  0  0  0
    6.4302   -1.2375    0.0000 O   0  0  0  0  0  0  0  0  0  0  0  0
    5.7158   -2.4750    0.0000 C   0  0  0  0  0  0  0  0  0  0  0  0
    6.4302   -2.8875    0.0000 O   0  0  0  0  0  0  0  0  0  0  0  0
    5.0013   -2.8875    0.0000 C   0  0  0  0  0  0  0  0  0  0  0  0
    5.0013   -3.7125    0.0000 O   0  0  0  0  0  0  0  0  0  0  0  0
    4.2868   -2.4750    0.0000 C   0  0  0  0  0  0  0  0  0  0  0  0
  1  2  1  0  0  0  0
  2  3  4  0  0  0  0
  3  4  4  0  0  0  0
  4  5  1  0  0  0  0
  4  6  4  0  0  0  0
  6  7  4  0  0  0  0
  7  8  2  0  0  0  0
  7  9  4  0  0  0  0
  9 10  1  0  0  0  0
  9 11  4  0  0  0  0
 11 12  4  0  0  0  0
 12 13  4  0  0  0  0
  6 13  4  0  0  0  0
 13 14  4  0  0  0  0
  2 14  4  0  0  0  0
 11 15  1  0  0  0  0
 15 16  4  0  0  0  0
 16 17  4  0  0  0  0
 17 18  1  0  0  0  0
 17 19  4  0  0  0  0
 19 20  1  0  0  0  0
 19 21  4  0  0  0  0
 21 22  1  0  0  0  0
 21 23  4  0  0  0  0
 15 23  4  0  0  0  0
M  END

> <ChembankId>
2181

> <SMILES>
Oc1cc(O)c2c(=O)c(O)c(oc2c1)c3cc(O)c(O)c(O)c3

> <InChI>
1/C15H10O8/c16-6-3-7(17)11-10(4-6)23-15(14(22)13(11)21)5-1-8(18)12(20)9(19)2-5/h1-4,16-20,22H

$$$$
1055132
  Marvin  11101114192D          

 27 30  0  0  0  0            999 V2000
    1.6820   -3.1539    0.0000 C   0  0  0  0  0  0  0  0  0  0  0  0
    1.9521   -2.3743    0.0000 O   0  0  0  0  0  0  0  0  0  0  0  0
    2.7622   -2.2184    0.0000 C   0  0  0  0  0  0  0  0  0  0  0  0
    3.0323   -1.4389    0.0000 C   0  0  0  0  0  0  0  0  0  0  0  0
    3.8424   -1.2829    0.0000 C   0  0  0  0  0  0  0  0  0  0  0  0
    4.1124   -0.5034    0.0000 C   0  0  0  0  0  0  0  0  0  0  0  0
    4.9226   -0.3475    0.0000 C   0  0  0  0  0  0  0  0  0  0  0  0
    5.4627   -0.9711    0.0000 N   0  3  0  0  0  0  0  0  0  0  0  0
    6.2728   -0.8152    0.0000 C   0  0  0  0  0  0  0  0  0  0  0  0
    6.5428   -0.0357    0.0000 C   0  0  0  0  0  0  0  0  0  0  0  0
    6.8129   -1.4389    0.0000 C   0  0  0  0  0  0  0  0  0  0  0  0
    7.6230   -1.2829    0.0000 C   0  0  0  0  0  0  0  0  0  0  0  0
    8.1631   -1.9066    0.0000 C   0  0  0  0  0  0  0  0  0  0  0  0
    8.9732   -1.7507    0.0000 O   0  0  0  0  0  0  0  0  0  0  0  0
    9.2433   -0.9711    0.0000 C   0  0  0  0  0  0  0  0  0  0  0  0
    7.8931   -2.6861    0.0000 C   0  0  0  0  0  0  0  0  0  0  0  0
    8.4332   -3.3098    0.0000 O   0  0  0  0  0  0  0  0  0  0  0  0
    8.1631   -4.0893    0.0000 C   0  0  0  0  0  0  0  0  0  0  0  0
    7.0829   -2.8421    0.0000 C   0  0  0  0  0  0  0  0  0  0  0  0
    6.5428   -2.2184    0.0000 C   0  0  0  0  0  0  0  0  0  0  0  0
    5.7327   -2.3743    0.0000 C   0  0  0  0  0  0  0  0  0  0  0  0
    5.1926   -1.7507    0.0000 C   0  0  0  0  0  0  0  0  0  0  0  0
    4.3825   -1.9066    0.0000 C   0  0  0  0  0  0  0  0  0  0  0  0
    4.1124   -2.6861    0.0000 C   0  0  0  0  0  0  0  0  0  0  0  0
    3.3023   -2.8421    0.0000 C   0  0  0  0  0  0  0  0  0  0  0  0
    3.0323   -3.6216    0.0000 O   0  0  0  0  0  0  0  0  0  0  0  0
    2.2221   -3.7775    0.0000 C   0  0  0  0  0  0  0  0  0  0  0  0
  1  2  1  0  0  0  0
  2  3  1  0  0  0  0
  3  4  4  0  0  0  0
  4  5  4  0  0  0  0
  5  6  4  0  0  0  0
  6  7  4  0  0  0  0
  7  8  4  0  0  0  0
  8  9  4  0  0  0  0
  9 10  1  0  0  0  0
  9 11  4  0  0  0  0
 11 12  4  0  0  0  0
 12 13  4  0  0  0  0
 13 14  1  0  0  0  0
 14 15  1  0  0  0  0
 13 16  4  0  0  0  0
 16 17  1  0  0  0  0
 17 18  1  0  0  0  0
 16 19  4  0  0  0  0
 19 20  4  0  0  0  0
 11 20  4  0  0  0  0
 20 21  4  0  0  0  0
 21 22  4  0  0  0  0
  8 22  4  0  0  0  0
 22 23  4  0  0  0  0
  5 23  4  0  0  0  0
 23 24  4  0  0  0  0
 24 25  4  0  0  0  0
  3 25  4  0  0  0  0
 25 26  1  0  0  0  0
 26 27  1  0  0  0  0
M  CHG  1   8   1
M  END

> <ChembankId>
1055132

> <SMILES>
COc1cc2cc[n+]3c(C)c4cc(OC)c(OC)cc4cc3c2cc1OC

> <InChI>
1/C22H22NO4/c1-13-16-11-21(26-4)20(25-3)10-15(16)8-18-17-12-22(27-5)19(24-2)9-14(17)6-7-23(13)18/h6-12H,1-5H3/q+1

$$$$
1024517
  Marvin  11101114192D          

 15 16  0  0  0  0            999 V2000
   -0.7145   -0.4125    0.0000 C   0  0  0  0  0  0  0  0  0  0  0  0
    0.0000    0.0000    0.0000 O   0  0  0  0  0  0  0  0  0  0  0  0
    0.7145   -0.4125    0.0000 C   0  0  0  0  0  0  0  0  0  0  0  0
    1.4289    0.0000    0.0000 C   0  0  0  0  0  0  0  0  0  0  0  0
    2.1434   -0.4125    0.0000 C   0  0  0  0  0  0  0  0  0  0  0  0
    2.8579    0.0000    0.0000 C   0  0  0  0  0  0  0  0  0  0  0  0
    3.5724   -0.4125    0.0000 C   0  0  0  0  0  0  0  0  0  0  0  0
    3.5724   -1.2375    0.0000 N   0  0  0  0  0  0  0  0  0  0  0  0
    2.8579   -1.6500    0.0000 C   0  0  0  0  0  0  0  0  0  0  0  0
    2.8579   -2.4750    0.0000 C   0  0  0  0  0  0  0  0  0  0  0  0
    2.1434   -1.2375    0.0000 C   0  0  0  0  0  0  0  0  0  0  0  0
    1.4289   -1.6500    0.0000 C   0  0  0  0  0  0  0  0  0  0  0  0
    0.7145   -1.2375    0.0000 C   0  0  0  0  0  0  0  0  0  0  0  0
    0.0000   -1.6500    0.0000 O   0  0  0  0  0  0  0  0  0  0  0  0
   -0.7145   -1.2375    0.0000 C   0  0  0  0  0  0  0  0  0  0  0  0
  1  2  1  0  0  0  0
  2  3  1  0  0  0  0
  3  4  4  0  0  0  0
  4  5  4  0  0  0  0
  5  6  1  0  0  0  0
  6  7  1  0  0  0  0
  7  8  1  0  0  0  0
  8  9  1  0  0  0  0
  9 10  1  0  0  0  0
  9 11  1  0  0  0  0
  5 11  4  0  0  0  0
 11 12  4  0  0  0  0
 12 13  4  0  0  0  0
  3 13  4  0  0  0  0
 13 14  1  0  0  0  0
 14 15  1  0  0  0  0
M  END

> <ChembankId>
1024517

> <SMILES>
COc1cc2CCNC(C)c2cc1OC

> <InChI>
1/C12H17NO2/c1-8-10-7-12(15-3)11(14-2)6-9(10)4-5-13-8/h6-8,13H,4-5H2,1-3H3

$$$$
2060361
  Marvin  11101114192D          

 79 86  0  0  1  0            999 V2000
   -2.4986   -2.1947    0.0000 C   0  0  0  0  0  0  0  0  0  0  0  0
   -2.7268   -2.9985    0.0000 C   0  0  0  0  0  0  0  0  0  0  0  0
   -2.4341   -3.7954    0.0000 C   0  0  0  0  0  0  0  0  0  0  0  0
   -2.8442   -4.5210    0.0000 C   0  0  0  0  0  0  0  0  0  0  0  0
   -1.5663   -3.7419    0.0000 C   0  0  0  0  0  0  0  0  0  0  0  0
   -1.3692   -2.9086    0.0000 O   0  0  0  0  0  0  0  0  0  0  0  0
   -0.9353   -4.2715    0.0000 O   0  0  0  0  0  0  0  0  0  0  0  0
   -0.1105   -4.5375    0.0000 C   0  0  2  0  0  0  0  0  0  0  0  0
    0.3020   -5.2520    0.0000 C   0  0  2  0  0  0  0  0  0  0  0  0
   -0.3505   -5.7617    0.0000 O   0  0  0  0  0  0  0  0  0  0  0  0
   -1.1550   -6.2349    0.0000 C   0  0  0  0  0  0  0  0  0  0  0  0
   -1.7250   -5.6424    0.0000 O   0  0  0  0  0  0  0  0  0  0  0  0
   -1.5242   -6.9338    0.0000 C   0  0  0  0  0  0  0  0  0  0  0  0
    1.1270   -5.2520    0.0000 C   0  0  2  0  0  0  0  0  0  0  0  0
    0.7371   -6.0260    0.0000 C   0  0  0  0  0  0  0  0  0  0  0  0
    0.5626   -6.8598    0.0000 O   0  0  0  0  0  0  0  0  0  0  0  0
    1.5395   -5.9664    0.0000 C   0  0  2  0  0  0  0  0  0  0  0  0
    1.6816   -6.8133    0.0000 O   0  0  0  0  0  0  0  0  0  0  0  0
    2.3645   -5.9664    0.0000 C   0  0  0  0  0  0  0  0  0  0  0  0
    2.7770   -5.2520    0.0000 C   0  0  2  0  0  0  0  0  0  0  0  0
    2.9311   -6.1383    0.0000 C   0  0  0  0  0  0  0  0  0  0  0  0
    2.3645   -4.5375    0.0000 C   0  0  0  0  0  0  0  0  0  0  0  0
    2.7770   -3.8230    0.0000 C   0  0  0  0  0  0  0  0  0  0  0  0
    3.6020   -3.8230    0.0000 C   0  0  0  0  0  0  0  0  0  0  0  0
    4.0145   -4.5375    0.0000 C   0  0  0  0  0  0  0  0  0  0  0  0
    4.8395   -4.5375    0.0000 C   0  0  1  0  0  0  0  0  0  0  0  0
    4.4879   -3.7310    0.0000 C   0  0  0  0  0  0  0  0  0  0  0  0
    5.2520   -3.8230    0.0000 C   0  0  0  0  0  0  0  0  0  0  0  0
    6.0770   -3.8230    0.0000 C   0  0  0  0  0  0  0  0  0  0  0  0
    6.4895   -4.5375    0.0000 C   0  0  2  0  0  0  0  0  0  0  0  0
    7.3235   -4.5442    0.0000 O   0  0  0  0  0  0  0  0  0  0  0  0
    7.7270   -3.8230    0.0000 C   0  0  2  0  0  0  0  0  0  0  0  0
    7.3145   -3.1086    0.0000 O   0  0  0  0  0  0  0  0  0  0  0  0
    7.7270   -2.3941    0.0000 C   0  0  1  0  0  0  0  0  0  0  0  0
    8.5520   -2.3941    0.0000 C   0  0  1  0  0  0  0  0  0  0  0  0
    8.9553   -1.6611    0.0000 O   0  0  0  0  0  0  0  0  0  0  0  0
    9.7895   -1.6796    0.0000 C   0  0  2  0  0  0  0  0  0  0  0  0
   10.2020   -2.3941    0.0000 O   0  0  0  0  0  0  0  0  0  0  0  0
   11.0270   -2.3941    0.0000 C   0  0  2  0  0  0  0  0  0  0  0  0
   11.8714   -2.5196    0.0000 C   0  0  0  0  0  0  0  0  0  0  0  0
   12.7260   -2.3974    0.0000 O   0  0  0  0  0  0  0  0  0  0  0  0
   11.4395   -1.6796    0.0000 C   0  0  1  0  0  0  0  0  0  0  0  0
   12.1841   -1.2338    0.0000 O   0  0  0  0  0  0  0  0  0  0  0  0
   11.0270   -0.9651    0.0000 C   0  0  2  0  0  0  0  0  0  0  0  0
   11.4095   -0.2021    0.0000 O   0  0  0  0  0  0  0  0  0  0  0  0
   10.2020   -0.9651    0.0000 C   0  0  1  0  0  0  0  0  0  0  0  0
    9.8033   -0.2162    0.0000 O   0  0  0  0  0  0  0  0  0  0  0  0
    8.9645   -3.1086    0.0000 C   0  0  2  0  0  0  0  0  0  0  0  0
    9.7493   -3.1106    0.0000 O   0  0  0  0  0  0  0  0  0  0  0  0
    8.5520   -3.8230    0.0000 C   0  0  1  0  0  0  0  0  0  0  0  0
    8.9534   -4.5587    0.0000 O   0  0  0  0  0  0  0  0  0  0  0  0
    9.7895   -4.5375    0.0000 C   0  0  2  0  0  0  0  0  0  0  0  0
   10.2020   -3.8230    0.0000 O   0  0  0  0  0  0  0  0  0  0  0  0
   11.0270   -3.8230    0.0000 C   0  0  2  0  0  0  0  0  0  0  0  0
   11.8587   -3.3200    0.0000 C   0  0  0  0  0  0  0  0  0  0  0  0
   12.5823   -3.6625    0.0000 O   0  0  0  0  0  0  0  0  0  0  0  0
   11.4395   -4.5375    0.0000 C   0  0  1  0  0  0  0  0  0  0  0  0
   12.2399   -4.8481    0.0000 O   0  0  0  0  0  0  0  0  0  0  0  0
   11.0270   -5.2520    0.0000 C   0  0  2  0  0  0  0  0  0  0  0  0
   11.4353   -5.9953    0.0000 O   0  0  0  0  0  0  0  0  0  0  0  0
   10.2020   -5.2520    0.0000 C   0  0  1  0  0  0  0  0  0  0  0  0
    9.7793   -5.9887    0.0000 O   0  0  0  0  0  0  0  0  0  0  0  0
    7.2710   -1.6678    0.0000 C   0  0  0  0  0  0  0  0  0  0  0  0
    7.5146   -0.8674    0.0000 O   0  0  0  0  0  0  0  0  0  0  0  0
    6.4396   -1.5729    0.0000 O   0  0  0  0  0  0  0  0  0  0  0  0
    6.0770   -5.2520    0.0000 C   0  0  2  0  0  0  0  0  0  0  0  0
    5.9430   -6.1078    0.0000 C   0  0  0  0  0  0  0  0  0  0  0  0
    6.7842   -5.7688    0.0000 C   0  0  0  0  0  0  0  0  0  0  0  0
    7.2828   -6.4590    0.0000 O   0  0  0  0  0  0  0  0  0  0  0  0
    5.2520   -5.2520    0.0000 C   0  0  0  0  0  0  0  0  0  0  0  0
    4.8395   -5.9664    0.0000 C   0  0  0  0  0  0  0  0  0  0  0  0
    4.0145   -5.9664    0.0000 C   0  0  0  0  0  0  0  0  0  0  0  0
    3.6020   -5.2520    0.0000 C   0  0  1  0  0  0  0  0  0  0  0  0
    3.6207   -6.1935    0.0000 C   0  0  0  0  0  0  0  0  0  0  0  0
    1.5395   -4.5375    0.0000 C   0  0  0  0  0  0  0  0  0  0  0  0
    1.1270   -3.8230    0.0000 C   0  0  0  0  0  0  0  0  0  0  0  0
    0.3020   -3.8230    0.0000 C   0  0  0  0  0  0  0  0  0  0  0  0
    0.6086   -2.9849    0.0000 C   0  0  0  0  0  0  0  0  0  0  0  0
   -0.2914   -3.1823    0.0000 C   0  0  0  0  0  0  0  0  0  0  0  0
  1  2  1  0  0  0  0
  2  3  2  0  0  0  0
  3  4  1  0  0  0  0
  3  5  1  0  0  0  0
  5  6  2  0  0  0  0
  5  7  1  0  0  0  0
  8  7  1  1  0  0  0
  8  9  1  0  0  0  0
  9 10  1  1  0  0  0
 10 11  1  0  0  0  0
 11 12  2  0  0  0  0
 11 13  1  0  0  0  0
  9 14  1  0  0  0  0
 14 15  1  6  0  0  0
 15 16  1  0  0  0  0
 14 17  1  0  0  0  0
 17 18  1  1  0  0  0
 17 19  1  0  0  0  0
 19 20  1  0  0  0  0
 20 21  1  1  0  0  0
 20 22  1  0  0  0  0
 22 23  2  0  0  0  0
 23 24  1  0  0  0  0
 24 25  1  0  0  0  0
 25 26  1  0  0  0  0
 26 27  1  6  0  0  0
 26 28  1  0  0  0  0
 28 29  1  0  0  0  0
 29 30  1  0  0  0  0
 30 31  1  6  0  0  0
 32 31  1  6  0  0  0
 32 33  1  0  0  0  0
 33 34  1  0  0  0  0
 34 35  1  0  0  0  0
 35 36  1  1  0  0  0
 37 36  1  1  0  0  0
 37 38  1  0  0  0  0
 38 39  1  0  0  0  0
 39 40  1  1  0  0  0
 40 41  1  0  0  0  0
 39 42  1  0  0  0  0
 42 43  1  6  0  0  0
 42 44  1  0  0  0  0
 44 45  1  1  0  0  0
 44 46  1  0  0  0  0
 37 46  1  0  0  0  0
 46 47  1  6  0  0  0
 35 48  1  0  0  0  0
 48 49  1  6  0  0  0
 48 50  1  0  0  0  0
 32 50  1  0  0  0  0
 50 51  1  1  0  0  0
 52 51  1  6  0  0  0
 52 53  1  0  0  0  0
 53 54  1  0  0  0  0
 54 55  1  6  0  0  0
 55 56  1  0  0  0  0
 54 57  1  0  0  0  0
 57 58  1  1  0  0  0
 57 59  1  0  0  0  0
 59 60  1  6  0  0  0
 59 61  1  0  0  0  0
 52 61  1  0  0  0  0
 61 62  1  1  0  0  0
 34 63  1  6  0  0  0
 63 64  2  0  0  0  0
 63 65  1  0  0  0  0
 30 66  1  0  0  0  0
 66 67  1  1  0  0  0
 66 68  1  6  0  0  0
 68 69  1  0  0  0  0
 66 70  1  0  0  0  0
 26 70  1  0  0  0  0
 70 71  1  0  0  0  0
 71 72  1  0  0  0  0
 72 73  1  0  0  0  0
 25 73  1  0  0  0  0
 20 73  1  0  0  0  0
 73 74  1  6  0  0  0
 22 75  1  0  0  0  0
 14 75  1  0  0  0  0
 75 76  1  0  0  0  0
 76 77  1  0  0  0  0
  8 77  1  0  0  0  0
 77 78  1  0  0  0  0
 77 79  1  0  0  0  0
M  END

> <ChembankId>
2060361

> <SMILES>
C/C=C(/C)\C(=O)O[C@@H]1[C@H](OC(=O)C)[C@]2(CO)[C@H](O)C[C@]3(C)C(=CCC4[C@@]5(C)CC[C@H](O[C@@H]6O[C@@H]([C@@H](O[C@@H]7O[C@H](CO)[C@@H](O)[C@H](O)[C@H]7O)[C@H](O)[C@H]6O[C@@H]8O[C@H](CO)[C@@H](O)[C@H](O)[C@H]8O)C(=O)O)[C@](C)(CO)C5CC[C@]43C)C2CC1(C)C

> <InChI>
1/C55H86O24/c1-10-23(2)46(71)79-43-44(72-24(3)60)55(22-59)26(17-50(43,4)5)25-11-12-30-51(6)15-14-32(52(7,21-58)29(51)13-16-53(30,8)54(25,9)18-31(55)61)75-49-41(77-48-38(67)36(65)34(63)28(20-57)74-48)39(68)40(42(78-49)45(69)70)76-47-37(66)35(64)33(62)27(19-56)73-47/h10-11,26-44,47-49,56-59,61-68H,12-22H2,1-9H3,(H,69,70)

$$$$
2308
  Marvin  11101114192D          

 86 93  0  0  0  0            999 V2000
   -2.1434   -1.2375    0.0000 C   0  0  0  0  0  0  0  0  0  0  0  0
   -1.4289   -1.6500    0.0000 C   0  0  0  0  0  0  0  0  0  0  0  0
   -0.7145   -1.2375    0.0000 C   0  0  0  0  0  0  0  0  0  0  0  0
    0.0000   -1.6500    0.0000 C   0  0  0  0  0  0  0  0  0  0  0  0
    0.0000   -2.4750    0.0000 C   0  0  0  0  0  0  0  0  0  0  0  0
   -0.7145   -2.8875    0.0000 C   0  0  0  0  0  0  0  0  0  0  0  0
   -1.4289   -2.4750    0.0000 C   0  0  0  0  0  0  0  0  0  0  0  0
   -2.1434   -2.8875    0.0000 N   0  0  0  0  0  0  0  0  0  0  0  0
   -2.8579   -2.4750    0.0000 C   0  0  0  0  0  0  0  0  0  0  0  0
   -2.8579   -1.6500    0.0000 O   0  0  0  0  0  0  0  0  0  0  0  0
   -3.5724   -2.8875    0.0000 C   0  0  0  0  0  0  0  0  0  0  0  0
   -3.5724   -3.7125    0.0000 C   0  0  0  0  0  0  0  0  0  0  0  0
   -4.2868   -4.1250    0.0000 C   0  0  0  0  0  0  0  0  0  0  0  0
   -5.0013   -3.7125    0.0000 C   0  0  0  0  0  0  0  0  0  0  0  0
   -5.0013   -2.8875    0.0000 C   0  0  0  0  0  0  0  0  0  0  0  0
   -5.7158   -2.4750    0.0000 N   0  0  0  0  0  0  0  0  0  0  0  0
   -6.4302   -2.8875    0.0000 C   0  0  0  0  0  0  0  0  0  0  0  0
   -6.4302   -3.7125    0.0000 O   0  0  0  0  0  0  0  0  0  0  0  0
   -7.1447   -2.4750    0.0000 N   0  0  0  0  0  0  0  0  0  0  0  0
   -7.8592   -2.8875    0.0000 C   0  0  0  0  0  0  0  0  0  0  0  0
   -7.8592   -3.7125    0.0000 C   0  0  0  0  0  0  0  0  0  0  0  0
   -8.5737   -4.1250    0.0000 C   0  0  0  0  0  0  0  0  0  0  0  0
   -9.2881   -3.7125    0.0000 C   0  0  0  0  0  0  0  0  0  0  0  0
   -9.2881   -2.8875    0.0000 C   0  0  0  0  0  0  0  0  0  0  0  0
   -8.5737   -2.4750    0.0000 C   0  0  0  0  0  0  0  0  0  0  0  0
  -10.0026   -2.4750    0.0000 C   0  0  0  0  0  0  0  0  0  0  0  0
  -10.0026   -1.6500    0.0000 O   0  0  0  0  0  0  0  0  0  0  0  0
  -10.7171   -2.8875    0.0000 N   0  0  0  0  0  0  0  0  0  0  0  0
  -11.4315   -2.4750    0.0000 C   0  0  0  0  0  0  0  0  0  0  0  0
  -12.1460   -2.8875    0.0000 C   0  0  0  0  0  0  0  0  0  0  0  0
  -12.8605   -2.4750    0.0000 C   0  0  0  0  0  0  0  0  0  0  0  0
  -12.8605   -1.6500    0.0000 C   0  0  0  0  0  0  0  0  0  0  0  0
  -12.1460   -1.2375    0.0000 C   0  0  0  0  0  0  0  0  0  0  0  0
  -11.4315   -1.6500    0.0000 C   0  0  0  0  0  0  0  0  0  0  0  0
  -10.7171   -1.2375    0.0000 C   0  0  0  0  0  0  0  0  0  0  0  0
  -13.5749   -2.8875    0.0000 C   0  0  0  0  0  0  0  0  0  0  0  0
  -13.5749   -3.7125    0.0000 O   0  0  0  0  0  0  0  0  0  0  0  0
  -14.2894   -2.4750    0.0000 N   0  0  0  0  0  0  0  0  0  0  0  0
  -15.0039   -2.8875    0.0000 C   0  0  0  0  0  0  0  0  0  0  0  0
  -15.0039   -3.7125    0.0000 C   0  0  0  0  0  0  0  0  0  0  0  0
  -15.7184   -4.1250    0.0000 C   0  0  0  0  0  0  0  0  0  0  0  0
  -16.4328   -3.7125    0.0000 C   0  0  0  0  0  0  0  0  0  0  0  0
  -16.4328   -2.8875    0.0000 C   0  0  0  0  0  0  0  0  0  0  0  0
  -17.1473   -2.4750    0.0000 C   0  0  0  0  0  0  0  0  0  0  0  0
  -17.1473   -1.6500    0.0000 C   0  0  0  0  0  0  0  0  0  0  0  0
  -16.4328   -1.2375    0.0000 C   0  0  0  0  0  0  0  0  0  0  0  0
  -15.7184   -1.6500    0.0000 C   0  0  0  0  0  0  0  0  0  0  0  0
  -15.7184   -2.4750    0.0000 C   0  0  0  0  0  0  0  0  0  0  0  0
  -15.0039   -1.2375    0.0000 S   0  0  0  0  0  0  0  0  0  0  0  0
  -14.2894   -0.8250    0.0000 O   0  0  0  0  0  0  0  0  0  0  0  0
  -14.5914   -1.9520    0.0000 O   0  0  0  0  0  0  0  0  0  0  0  0
  -15.4164   -0.5230    0.0000 O   0  0  0  0  0  0  0  0  0  0  0  0
  -17.8618   -1.2375    0.0000 S   0  0  0  0  0  0  0  0  0  0  0  0
  -18.5762   -0.8250    0.0000 O   0  0  0  0  0  0  0  0  0  0  0  0
  -18.2743   -1.9520    0.0000 O   0  0  0  0  0  0  0  0  0  0  0  0
  -17.4493   -0.5230    0.0000 O   0  0  0  0  0  0  0  0  0  0  0  0
  -17.1473   -4.1250    0.0000 S   0  0  0  0  0  0  0  0  0  0  0  0
  -17.8618   -4.5375    0.0000 O   0  0  0  0  0  0  0  0  0  0  0  0
  -17.5598   -3.4105    0.0000 O   0  0  0  0  0  0  0  0  0  0  0  0
  -16.7348   -4.8395    0.0000 O   0  0  0  0  0  0  0  0  0  0  0  0
   -4.2868   -2.4750    0.0000 C   0  0  0  0  0  0  0  0  0  0  0  0
    0.7145   -2.8875    0.0000 C   0  0  0  0  0  0  0  0  0  0  0  0
    0.7145   -3.7125    0.0000 O   0  0  0  0  0  0  0  0  0  0  0  0
    1.4289   -2.4750    0.0000 N   0  0  0  0  0  0  0  0  0  0  0  0
    1.4289   -1.6500    0.0000 C   0  0  0  0  0  0  0  0  0  0  0  0
    0.7145   -1.2375    0.0000 C   0  0  0  0  0  0  0  0  0  0  0  0
    0.7145   -0.4125    0.0000 C   0  0  0  0  0  0  0  0  0  0  0  0
    1.4289    0.0000    0.0000 C   0  0  0  0  0  0  0  0  0  0  0  0
    2.1434   -0.4125    0.0000 C   0  0  0  0  0  0  0  0  0  0  0  0
    2.8579    0.0000    0.0000 C   0  0  0  0  0  0  0  0  0  0  0  0
    3.5724   -0.4125    0.0000 C   0  0  0  0  0  0  0  0  0  0  0  0
    3.5724   -1.2375    0.0000 C   0  0  0  0  0  0  0  0  0  0  0  0
    2.8579   -1.6500    0.0000 C   0  0  0  0  0  0  0  0  0  0  0  0
    2.1434   -1.2375    0.0000 C   0  0  0  0  0  0  0  0  0  0  0  0
    2.8579   -2.4750    0.0000 S   0  0  0  0  0  0  0  0  0  0  0  0
    2.8579   -3.3000    0.0000 O   0  0  0  0  0  0  0  0  0  0  0  0
    2.0329   -2.4750    0.0000 O   0  0  0  0  0  0  0  0  0  0  0  0
    3.6829   -2.4750    0.0000 O   0  0  0  0  0  0  0  0  0  0  0  0
    4.2868   -0.0000    0.0000 S   0  0  0  0  0  0  0  0  0  0  0  0
    5.0013    0.4125    0.0000 O   0  0  0  0  0  0  0  0  0  0  0  0
    4.6993   -0.7145    0.0000 O   0  0  0  0  0  0  0  0  0  0  0  0
    3.8743    0.7145    0.0000 O   0  0  0  0  0  0  0  0  0  0  0  0
    1.4289    0.8250    0.0000 S   0  0  0  0  0  0  0  0  0  0  0  0
    1.4289    1.6500    0.0000 O   0  0  0  0  0  0  0  0  0  0  0  0
    2.2539    0.8250    0.0000 O   0  0  0  0  0  0  0  0  0  0  0  0
    0.6039    0.8250    0.0000 O   0  0  0  0  0  0  0  0  0  0  0  0
  1  2  1  0  0  0  0
  2  3  4  0  0  0  0
  3  4  4  0  0  0  0
  4  5  4  0  0  0  0
  5  6  4  0  0  0  0
  6  7  4  0  0  0  0
  2  7  4  0  0  0  0
  7  8  1  0  0  0  0
  8  9  1  0  0  0  0
  9 10  2  0  0  0  0
  9 11  1  0  0  0  0
 11 12  4  0  0  0  0
 12 13  4  0  0  0  0
 13 14  4  0  0  0  0
 14 15  4  0  0  0  0
 15 16  1  0  0  0  0
 16 17  1  0  0  0  0
 17 18  2  0  0  0  0
 17 19  1  0  0  0  0
 19 20  1  0  0  0  0
 20 21  4  0  0  0  0
 21 22  4  0  0  0  0
 22 23  4  0  0  0  0
 23 24  4  0  0  0  0
 24 25  4  0  0  0  0
 20 25  4  0  0  0  0
 24 26  1  0  0  0  0
 26 27  2  0  0  0  0
 26 28  1  0  0  0  0
 28 29  1  0  0  0  0
 29 30  4  0  0  0  0
 30 31  4  0  0  0  0
 31 32  4  0  0  0  0
 32 33  4  0  0  0  0
 33 34  4  0  0  0  0
 29 34  4  0  0  0  0
 34 35  1  0  0  0  0
 31 36  1  0  0  0  0
 36 37  2  0  0  0  0
 36 38  1  0  0  0  0
 38 39  1  0  0  0  0
 39 40  4  0  0  0  0
 40 41  4  0  0  0  0
 41 42  4  0  0  0  0
 42 43  4  0  0  0  0
 43 44  4  0  0  0  0
 44 45  4  0  0  0  0
 45 46  4  0  0  0  0
 46 47  4  0  0  0  0
 47 48  4  0  0  0  0
 39 48  4  0  0  0  0
 43 48  4  0  0  0  0
 47 49  1  0  0  0  0
 49 50  2  0  0  0  0
 49 51  2  0  0  0  0
 49 52  1  0  0  0  0
 45 53  1  0  0  0  0
 53 54  2  0  0  0  0
 53 55  2  0  0  0  0
 53 56  1  0  0  0  0
 42 57  1  0  0  0  0
 57 58  2  0  0  0  0
 57 59  2  0  0  0  0
 57 60  1  0  0  0  0
 15 61  4  0  0  0  0
 11 61  4  0  0  0  0
  5 62  1  0  0  0  0
 62 63  2  0  0  0  0
 62 64  1  0  0  0  0
 64 65  1  0  0  0  0
 65 66  4  0  0  0  0
 66 67  4  0  0  0  0
 67 68  4  0  0  0  0
 68 69  4  0  0  0  0
 69 70  4  0  0  0  0
 70 71  4  0  0  0  0
 71 72  4  0  0  0  0
 72 73  4  0  0  0  0
 73 74  4  0  0  0  0
 65 74  4  0  0  0  0
 69 74  4  0  0  0  0
 73 75  1  0  0  0  0
 75 76  2  0  0  0  0
 75 77  2  0  0  0  0
 75 78  1  0  0  0  0
 71 79  1  0  0  0  0
 79 80  2  0  0  0  0
 79 81  2  0  0  0  0
 79 82  1  0  0  0  0
 68 83  1  0  0  0  0
 83 84  2  0  0  0  0
 83 85  2  0  0  0  0
 83 86  1  0  0  0  0
M  END

> <ChembankId>
2308

> <SMILES>
Cc1ccc(cc1NC(=O)c2cccc(NC(=O)Nc3cccc(c3)C(=O)Nc4cc(ccc4C)C(=O)Nc5ccc(c6cc(cc(c56)S(=O)(=O)O)S(=O)(=O)O)S(=O)(=O)O)c2)C(=O)Nc7ccc(c8cc(cc(c78)S(=O)(=O)O)S(=O)(=O)O)S(=O)(=O)O

> <InChI>
1/C51H40N6O23S6/c1-25-9-11-29(49(60)54-37-13-15-41(83(69,70)71)35-21-33(81(63,64)65)23-43(45(35)37)85(75,76)77)19-39(25)56-47(58)27-5-3-7-31(17-27)52-51(62)53-32-8-4-6-28(18-32)48(59)57-40-20-30(12-10-26(40)2)50(61)55-38-14-16-42(84(72,73)74)36-22-34(82(66,67)68)24-44(46(36)38)86(78,79)80/h3-24H,1-2H3,(H,54,60)(H,55,61)(H,56,58)(H,57,59)(H2,52,53,62)(H,63,64,65)(H,66,67,68)(H,69,70,71)(H,72,73,74)(H,75,76,77)(H,78,79,80)

$$$$
907463
  Marvin  11101114192D          

 29 32  0  0  0  0            999 V2000
    0.0000    0.0000    0.0000 C   0  0  0  0  0  0  0  0  0  0  0  0
    0.7145   -0.4125    0.0000 C   0  0  0  0  0  0  0  0  0  0  0  0
    1.4289    0.0000    0.0000 N   0  0  0  0  0  0  0  0  0  0  0  0
    2.1434   -0.4125    0.0000 C   0  0  0  0  0  0  0  0  0  0  0  0
    2.8579    0.0000    0.0000 C   0  0  0  0  0  0  0  0  0  0  0  0
    3.5724   -0.4125    0.0000 C   0  0  0  0  0  0  0  0  0  0  0  0
    3.5724   -1.2375    0.0000 C   0  0  0  0  0  0  0  0  0  0  0  0
    2.8579   -1.6500    0.0000 C   0  0  0  0  0  0  0  0  0  0  0  0
    2.1434   -1.2375    0.0000 N   0  0  0  0  0  0  0  0  0  0  0  0
    1.4289   -1.6500    0.0000 C   0  0  0  0  0  0  0  0  0  0  0  0
    1.4289   -2.4750    0.0000 O   0  0  0  0  0  0  0  0  0  0  0  0
    0.7145   -1.2375    0.0000 C   0  0  0  0  0  0  0  0  0  0  0  0
    0.0000   -1.6500    0.0000 C   0  0  0  0  0  0  0  0  0  0  0  0
    0.0000   -2.4750    0.0000 C   0  0  0  0  0  0  0  0  0  0  0  0
   -0.7145   -2.8875    0.0000 N   0  0  0  0  0  0  0  0  0  0  0  0
   -0.7145   -3.7125    0.0000 C   0  0  0  0  0  0  0  0  0  0  0  0
   -1.4289   -4.1250    0.0000 C   0  0  0  0  0  0  0  0  0  0  0  0
   -2.1434   -3.7125    0.0000 C   0  0  0  0  0  0  0  0  0  0  0  0
   -2.1434   -2.8875    0.0000 C   0  0  0  0  0  0  0  0  0  0  0  0
   -1.4289   -2.4750    0.0000 C   0  0  0  0  0  0  0  0  0  0  0  0
   -2.8579   -4.1250    0.0000 C   0  0  0  0  0  0  0  0  0  0  0  0
   -2.8579   -4.9500    0.0000 O   0  0  0  0  0  0  0  0  0  0  0  0
   -3.5724   -3.7125    0.0000 C   0  0  0  0  0  0  0  0  0  0  0  0
   -4.2868   -4.1250    0.0000 C   0  0  0  0  0  0  0  0  0  0  0  0
   -5.0013   -3.7125    0.0000 C   0  0  0  0  0  0  0  0  0  0  0  0
   -5.0013   -2.8875    0.0000 C   0  0  0  0  0  0  0  0  0  0  0  0
   -5.7158   -2.4750    0.0000 F   0  0  0  0  0  0  0  0  0  0  0  0
   -4.2868   -2.4750    0.0000 C   0  0  0  0  0  0  0  0  0  0  0  0
   -3.5724   -2.8875    0.0000 C   0  0  0  0  0  0  0  0  0  0  0  0
  1  2  1  0  0  0  0
  2  3  4  0  0  0  0
  3  4  4  0  0  0  0
  4  5  4  0  0  0  0
  5  6  4  0  0  0  0
  6  7  4  0  0  0  0
  7  8  4  0  0  0  0
  8  9  4  0  0  0  0
  4  9  4  0  0  0  0
  9 10  4  0  0  0  0
 10 11  2  0  0  0  0
 10 12  4  0  0  0  0
  2 12  4  0  0  0  0
 12 13  1  0  0  0  0
 13 14  1  0  0  0  0
 14 15  1  0  0  0  0
 15 16  1  0  0  0  0
 16 17  1  0  0  0  0
 17 18  1  0  0  0  0
 18 19  1  0  0  0  0
 19 20  1  0  0  0  0
 15 20  1  0  0  0  0
 18 21  1  0  0  0  0
 21 22  2  0  0  0  0
 21 23  1  0  0  0  0
 23 24  4  0  0  0  0
 24 25  4  0  0  0  0
 25 26  4  0  0  0  0
 26 27  1  0  0  0  0
 26 28  4  0  0  0  0
 28 29  4  0  0  0  0
 23 29  4  0  0  0  0
M  END

> <ChembankId>
907463

> <SMILES>
Cc1nc2ccccn2c(=O)c1CCN3CCC(CC3)C(=O)c4ccc(F)cc4

> <InChI>
1/C23H24FN3O2/c1-16-20(23(29)27-12-3-2-4-21(27)25-16)11-15-26-13-9-18(10-14-26)22(28)17-5-7-19(24)8-6-17/h2-8,12,18H,9-11,13-15H2,1H3

$$$$
1000656
  Marvin  11101114192D          

 26 29  0  0  0  0            999 V2000
    0.0000   -1.6500    0.0000 O   0  0  0  0  0  0  0  0  0  0  0  0
    0.7145   -1.2375    0.0000 C   0  0  0  0  0  0  0  0  0  0  0  0
    0.7145   -0.4125    0.0000 C   0  0  0  0  0  0  0  0  0  0  0  0
    0.0000    0.0000    0.0000 C   0  0  1  0  0  0  0  0  0  0  0  0
   -0.7145   -0.4125    0.0000 C   0  0  0  0  0  0  0  0  0  0  0  0
   -1.4289   -0.0000    0.0000 C   0  0  0  0  0  0  0  0  0  0  0  0
   -1.4289    0.8250    0.0000 C   0  0  1  0  0  0  0  0  0  0  0  0
   -0.7145    1.2375    0.0000 C   0  0  0  0  0  0  0  0  0  0  0  0
    0.0000    0.8250    0.0000 C   0  0  0  0  0  0  0  0  0  0  0  0
   -2.1434    1.2375    0.0000 C   0  0  0  0  0  0  0  0  0  0  0  0
   -2.8579    0.8250    0.0000 C   0  0  0  0  0  0  0  0  0  0  0  0
   -3.5724    1.2375    0.0000 C   0  0  0  0  0  0  0  0  0  0  0  0
   -3.5724    2.0625    0.0000 C   0  0  0  0  0  0  0  0  0  0  0  0
   -4.2868    2.4750    0.0000 Cl  0  0  0  0  0  0  0  0  0  0  0  0
   -2.8579    2.4750    0.0000 C   0  0  0  0  0  0  0  0  0  0  0  0
   -2.1434    2.0625    0.0000 C   0  0  0  0  0  0  0  0  0  0  0  0
    1.4289    0.0000    0.0000 C   0  0  0  0  0  0  0  0  0  0  0  0
    1.4289    0.8250    0.0000 O   0  0  0  0  0  0  0  0  0  0  0  0
    2.1434   -0.4125    0.0000 C   0  0  0  0  0  0  0  0  0  0  0  0
    2.8579    0.0000    0.0000 C   0  0  0  0  0  0  0  0  0  0  0  0
    3.5724   -0.4125    0.0000 C   0  0  0  0  0  0  0  0  0  0  0  0
    3.5724   -1.2375    0.0000 C   0  0  0  0  0  0  0  0  0  0  0  0
    2.8579   -1.6500    0.0000 C   0  0  0  0  0  0  0  0  0  0  0  0
    2.1434   -1.2375    0.0000 C   0  0  0  0  0  0  0  0  0  0  0  0
    1.4289   -1.6500    0.0000 C   0  0  0  0  0  0  0  0  0  0  0  0
    1.4289   -2.4750    0.0000 O   0  0  0  0  0  0  0  0  0  0  0  0
  1  2  1  0  0  0  0
  2  3  2  0  0  0  0
  4  3  1  1  0  0  0
  4  5  1  0  0  0  0
  5  6  1  0  0  0  0
  6  7  1  0  0  0  0
  7  8  1  0  0  0  0
  8  9  1  0  0  0  0
  4  9  1  0  0  0  0
  7 10  1  6  0  0  0
 10 11  4  0  0  0  0
 11 12  4  0  0  0  0
 12 13  4  0  0  0  0
 13 14  1  0  0  0  0
 13 15  4  0  0  0  0
 15 16  4  0  0  0  0
 10 16  4  0  0  0  0
  3 17  1  0  0  0  0
 17 18  2  0  0  0  0
 17 19  1  0  0  0  0
 19 20  4  0  0  0  0
 20 21  4  0  0  0  0
 21 22  4  0  0  0  0
 22 23  4  0  0  0  0
 23 24  4  0  0  0  0
 19 24  4  0  0  0  0
 24 25  1  0  0  0  0
  2 25  1  0  0  0  0
 25 26  2  0  0  0  0
M  END

> <ChembankId>
1000656

> <SMILES>
OC1=C([C@H]2CC[C@@H](CC2)c3ccc(Cl)cc3)C(=O)c4ccccc4C1=O

> <InChI>
1/C22H19ClO3/c23-16-11-9-14(10-12-16)13-5-7-15(8-6-13)19-20(24)17-3-1-2-4-18(17)21(25)22(19)26/h1-4,9-13,15,26H,5-8H2

$$$$
2575
  Marvin  11101114192D          

 16 16  0  0  0  0            999 V2000
   -3.5175   -0.6343    0.0000 C   0  0  0  0  0  0  0  0  0  0  0  0
   -2.8030   -1.0468    0.0000 C   0  0  0  0  0  0  0  0  0  0  0  0
   -2.0886   -0.6343    0.0000 S   0  0  0  0  0  0  0  0  0  0  0  0
   -1.6761   -1.3488    0.0000 O   0  0  0  0  0  0  0  0  0  0  0  0
   -2.5011    0.0802    0.0000 O   0  0  0  0  0  0  0  0  0  0  0  0
   -1.3741   -0.2218    0.0000 C   0  0  0  0  0  0  0  0  0  0  0  0
   -0.6596   -0.6343    0.0000 C   0  0  0  0  0  0  0  0  0  0  0  0
    0.0549   -0.2218    0.0000 N   0  0  0  0  0  0  0  0  0  0  0  0
    0.1411    0.5987    0.0000 C   0  0  0  0  0  0  0  0  0  0  0  0
   -0.4720    1.1507    0.0000 C   0  0  0  0  0  0  0  0  0  0  0  0
    0.9481    0.7702    0.0000 N   0  0  0  0  0  0  0  0  0  0  0  0
    1.3606    0.0557    0.0000 C   0  0  0  0  0  0  0  0  0  0  0  0
    0.8085   -0.5573    0.0000 C   0  0  0  0  0  0  0  0  0  0  0  0
    0.9801   -1.3643    0.0000 N   0  3  0  0  0  0  0  0  0  0  0  0
    1.7647   -1.6193    0.0000 O   0  0  0  0  0  0  0  0  0  0  0  0
    0.3670   -1.9164    0.0000 O   0  5  0  0  0  0  0  0  0  0  0  0
  1  2  1  0  0  0  0
  2  3  1  0  0  0  0
  3  4  2  0  0  0  0
  3  5  2  0  0  0  0
  3  6  1  0  0  0  0
  6  7  1  0  0  0  0
  7  8  1  0  0  0  0
  8  9  4  0  0  0  0
  9 10  1  0  0  0  0
  9 11  4  0  0  0  0
 11 12  4  0  0  0  0
 12 13  4  0  0  0  0
  8 13  4  0  0  0  0
 13 14  1  0  0  0  0
 14 15  2  0  0  0  0
 14 16  1  0  0  0  0
M  CHG  2  14   1  16  -1
M  END

> <ChembankId>
2575

> <SMILES>
CCS(=O)(=O)CCn1c(C)ncc1[N+](=O)[O-]

> <InChI>
1/C8H13N3O4S/c1-3-16(14,15)5-4-10-7(2)9-6-8(10)11(12)13/h6H,3-5H2,1-2H3

$$$$
3856
  Marvin  11101114192D          

 12 13  0  0  0  0            999 V2000
   -0.3964   -3.3866    0.0000 C   0  0  0  0  0  0  0  0  0  0  0  0
    0.2522   -2.8768    0.0000 N   0  0  0  0  0  0  0  0  0  0  0  0
    0.1351   -2.0602    0.0000 C   0  0  0  0  0  0  0  0  0  0  0  0
   -0.6764   -1.9114    0.0000 C   0  0  0  0  0  0  0  0  0  0  0  0
    0.9106   -1.6699    0.0000 C   0  0  0  0  0  0  0  0  0  0  0  0
    1.6411   -2.0402    0.0000 C   0  0  0  0  0  0  0  0  0  0  0  0
    1.9362   -1.4148    0.0000 C   0  0  0  0  0  0  0  0  0  0  0  0
    1.1407   -0.9495    0.0000 C   0  0  0  0  0  0  0  0  0  0  0  0
    0.9807   -0.1341    0.0000 C   0  0  0  0  0  0  0  0  0  0  0  0
    0.5004   -1.3997    0.0000 C   0  0  0  0  0  0  0  0  0  0  0  0
    0.1641   -0.6464    0.0000 C   0  0  0  0  0  0  0  0  0  0  0  0
   -0.2847   -1.1463    0.0000 C   0  0  0  0  0  0  0  0  0  0  0  0
  1  2  1  0  0  0  0
  2  3  1  0  0  0  0
  3  4  1  0  0  0  0
  3  5  1  0  0  0  0
  5  6  1  0  0  0  0
  6  7  1  0  0  0  0
  7  8  1  0  0  0  0
  8  9  1  0  0  0  0
  5  9  1  0  0  0  0
  8 10  1  0  0  0  0
  3 10  1  0  0  0  0
 10 11  1  0  0  0  0
 10 12  1  0  0  0  0
M  END

> <ChembankId>
3856

> <SMILES>
CNC1(C)C2CCC(C2)C1(C)C

> <InChI>
1/C11H21N/c1-10(2)8-5-6-9(7-8)11(10,3)12-4/h8-9,12H,5-7H2,1-4H3

$$$$
1537011
  Marvin  11101114192D          

 19 20  0  0  0  0            999 V2000
   -2.1434   -1.2375    0.0000 C   0  0  0  0  0  0  0  0  0  0  0  0
   -1.4289   -1.6500    0.0000 N   0  0  0  0  0  0  0  0  0  0  0  0
   -1.4289   -2.4750    0.0000 C   0  0  0  0  0  0  0  0  0  0  0  0
   -0.7145   -1.2375    0.0000 C   0  0  0  0  0  0  0  0  0  0  0  0
    0.0000   -1.6500    0.0000 C   0  0  0  0  0  0  0  0  0  0  0  0
    0.7145   -1.2375    0.0000 C   0  0  0  0  0  0  0  0  0  0  0  0
    1.4289   -1.6500    0.0000 C   0  0  0  0  0  0  0  0  0  0  0  0
    2.1434   -1.2375    0.0000 C   0  0  0  0  0  0  0  0  0  0  0  0
    2.8579   -1.6500    0.0000 C   0  0  0  0  0  0  0  0  0  0  0  0
    2.8579   -2.4750    0.0000 C   0  0  0  0  0  0  0  0  0  0  0  0
    3.5724   -2.8875    0.0000 Br  0  0  0  0  0  0  0  0  0  0  0  0
    2.1434   -2.8875    0.0000 C   0  0  0  0  0  0  0  0  0  0  0  0
    1.4289   -2.4750    0.0000 C   0  0  0  0  0  0  0  0  0  0  0  0
    0.7145   -0.4125    0.0000 C   0  0  0  0  0  0  0  0  0  0  0  0
    0.0000    0.0000    0.0000 C   0  0  0  0  0  0  0  0  0  0  0  0
    0.0000    0.8250    0.0000 C   0  0  0  0  0  0  0  0  0  0  0  0
    0.7145    1.2375    0.0000 C   0  0  0  0  0  0  0  0  0  0  0  0
    1.4289    0.8250    0.0000 C   0  0  0  0  0  0  0  0  0  0  0  0
    1.4289    0.0000    0.0000 N   0  0  0  0  0  0  0  0  0  0  0  0
  1  2  1  0  0  0  0
  2  3  1  0  0  0  0
  2  4  1  0  0  0  0
  4  5  1  0  0  0  0
  5  6  1  0  0  0  0
  6  7  1  0  0  0  0
  7  8  4  0  0  0  0
  8  9  4  0  0  0  0
  9 10  4  0  0  0  0
 10 11  1  0  0  0  0
 10 12  4  0  0  0  0
 12 13  4  0  0  0  0
  7 13  4  0  0  0  0
  6 14  1  0  0  0  0
 14 15  4  0  0  0  0
 15 16  4  0  0  0  0
 16 17  4  0  0  0  0
 17 18  4  0  0  0  0
 18 19  4  0  0  0  0
 14 19  4  0  0  0  0
M  END

> <ChembankId>
1537011

> <SMILES>
CN(C)CCC(c1ccc(Br)cc1)c2ccccn2

> <InChI>
1/C16H19BrN2/c1-19(2)12-10-15(16-5-3-4-11-18-16)13-6-8-14(17)9-7-13/h3-9,11,15H,10,12H2,1-2H3

$$$$
2777
  Marvin  11101114192D          

 26 28  0  0  0  0            999 V2000
    5.0013   -1.2375    0.0000 C   0  0  0  0  0  0  0  0  0  0  0  0
    5.7158   -1.6500    0.0000 O   0  0  0  0  0  0  0  0  0  0  0  0
    5.7158   -2.4750    0.0000 C   0  0  0  0  0  0  0  0  0  0  0  0
    6.4302   -2.8875    0.0000 C   0  0  0  0  0  0  0  0  0  0  0  0
    6.4302   -3.7125    0.0000 C   0  0  0  0  0  0  0  0  0  0  0  0
    7.1447   -4.1250    0.0000 N   0  0  0  0  0  0  0  0  0  0  0  0
    5.7158   -4.1250    0.0000 C   0  0  0  0  0  0  0  0  0  0  0  0
    5.7158   -4.9500    0.0000 Cl  0  0  0  0  0  0  0  0  0  0  0  0
    5.0013   -3.7125    0.0000 C   0  0  0  0  0  0  0  0  0  0  0  0
    5.0013   -2.8875    0.0000 C   0  0  0  0  0  0  0  0  0  0  0  0
    4.2868   -2.4750    0.0000 C   0  0  0  0  0  0  0  0  0  0  0  0
    4.2868   -1.6500    0.0000 O   0  0  0  0  0  0  0  0  0  0  0  0
    3.5724   -2.8875    0.0000 N   0  0  0  0  0  0  0  0  0  0  0  0
    2.8579   -2.4750    0.0000 C   0  0  0  0  0  0  0  0  0  0  0  0
    2.1434   -2.8875    0.0000 C   0  0  0  0  0  0  0  0  0  0  0  0
    1.4289   -2.4750    0.0000 C   0  0  0  0  0  0  0  0  0  0  0  0
    1.4289   -1.6500    0.0000 N   0  0  0  0  0  0  0  0  0  0  0  0
    0.7145   -1.2375    0.0000 C   0  0  0  0  0  0  0  0  0  0  0  0
    0.7145   -0.4125    0.0000 C   0  0  0  0  0  0  0  0  0  0  0  0
    0.0000    0.0000    0.0000 C   0  0  0  0  0  0  0  0  0  0  0  0
    0.0000    0.8250    0.0000 C   0  0  0  0  0  0  0  0  0  0  0  0
    0.7145    1.2375    0.0000 C   0  0  0  0  0  0  0  0  0  0  0  0
    1.4289    0.8250    0.0000 C   0  0  0  0  0  0  0  0  0  0  0  0
    1.4289    0.0000    0.0000 C   0  0  0  0  0  0  0  0  0  0  0  0
    2.1434   -1.2375    0.0000 C   0  0  0  0  0  0  0  0  0  0  0  0
    2.8579   -1.6500    0.0000 C   0  0  0  0  0  0  0  0  0  0  0  0
  1  2  1  0  0  0  0
  2  3  1  0  0  0  0
  3  4  4  0  0  0  0
  4  5  4  0  0  0  0
  5  6  1  0  0  0  0
  5  7  4  0  0  0  0
  7  8  1  0  0  0  0
  7  9  4  0  0  0  0
  9 10  4  0  0  0  0
  3 10  4  0  0  0  0
 10 11  1  0  0  0  0
 11 12  2  0  0  0  0
 11 13  1  0  0  0  0
 13 14  1  0  0  0  0
 14 15  1  0  0  0  0
 15 16  1  0  0  0  0
 16 17  1  0  0  0  0
 17 18  1  0  0  0  0
 18 19  1  0  0  0  0
 19 20  4  0  0  0  0
 20 21  4  0  0  0  0
 21 22  4  0  0  0  0
 22 23  4  0  0  0  0
 23 24  4  0  0  0  0
 19 24  4  0  0  0  0
 17 25  1  0  0  0  0
 25 26  1  0  0  0  0
 14 26  1  0  0  0  0
M  END

> <ChembankId>
2777

> <SMILES>
COc1cc(N)c(Cl)cc1C(=O)NC2CCN(Cc3ccccc3)CC2

> <InChI>
1/C20H24ClN3O2/c1-26-19-12-18(22)17(21)11-16(19)20(25)23-15-7-9-24(10-8-15)13-14-5-3-2-4-6-14/h2-6,11-12,15H,7-10,13,22H2,1H3,(H,23,25)

$$$$
1008060
  Marvin  11101114192D          

 10 11  0  0  0  0            999 V2000
    3.5485    1.8011    0.0000 C   0  0  0  0  0  0  0  0  0  0  0  0
    3.1906    1.0578    0.0000 C   0  0  0  0  0  0  0  0  0  0  0  0
    2.3863    0.8742    0.0000 C   0  0  0  0  0  0  0  0  0  0  0  0
    1.7413    1.3886    0.0000 C   0  0  0  0  0  0  0  0  0  0  0  0
    0.9566    1.1337    0.0000 N   0  0  0  0  0  0  0  0  0  0  0  0
    0.4717    1.8011    0.0000 N   0  0  0  0  0  0  0  0  0  0  0  0
    0.9566    2.4686    0.0000 N   0  0  0  0  0  0  0  0  0  0  0  0
    1.7413    2.2136    0.0000 N   0  0  0  0  0  0  0  0  0  0  0  0
    2.3863    2.7280    0.0000 C   0  0  0  0  0  0  0  0  0  0  0  0
    3.1906    2.5444    0.0000 C   0  0  0  0  0  0  0  0  0  0  0  0
  1  2  1  0  0  0  0
  2  3  1  0  0  0  0
  3  4  1  0  0  0  0
  4  5  4  0  0  0  0
  5  6  4  0  0  0  0
  6  7  4  0  0  0  0
  7  8  4  0  0  0  0
  4  8  4  0  0  0  0
  8  9  1  0  0  0  0
  9 10  1  0  0  0  0
  1 10  1  0  0  0  0
M  END

> <ChembankId>
1008060

> <SMILES>
C1CCc2nnnn2CC1

> <InChI>
1/C6H10N4/c1-2-4-6-7-8-9-10(6)5-3-1/h1-5H2

$$$$
3197
  Marvin  11101114192D          

 24 27  0  0  1  0            999 V2000
    1.9233    6.0604    0.0000 F   0  0  0  0  0  0  0  0  0  0  0  0
    2.6378    5.6479    0.0000 C   0  0  0  0  0  0  0  0  0  0  0  0
    3.3523    6.0604    0.0000 C   0  0  0  0  0  0  0  0  0  0  0  0
    4.0668    5.6479    0.0000 C   0  0  0  0  0  0  0  0  0  0  0  0
    4.0668    4.8229    0.0000 C   0  0  0  0  0  0  0  0  0  0  0  0
    3.3523    4.4104    0.0000 C   0  0  0  0  0  0  0  0  0  0  0  0
    2.6378    4.8229    0.0000 C   0  0  0  0  0  0  0  0  0  0  0  0
    4.7812    4.4104    0.0000 C   0  0  2  0  0  0  0  0  0  0  0  0
    5.4957    4.8229    0.0000 C   0  0  0  0  0  0  0  0  0  0  0  0
    6.2102    4.4104    0.0000 C   0  0  0  0  0  0  0  0  0  0  0  0
    6.2102    3.5854    0.0000 N   0  0  0  0  0  0  0  0  0  0  0  0
    5.4957    3.1729    0.0000 C   0  0  0  0  0  0  0  0  0  0  0  0
    4.7812    3.5854    0.0000 C   0  0  1  0  0  0  0  0  0  0  0  0
    4.0668    3.1729    0.0000 C   0  0  0  0  0  0  0  0  0  0  0  0
    4.0668    2.3479    0.0000 O   0  0  0  0  0  0  0  0  0  0  0  0
    3.3523    1.9354    0.0000 C   0  0  0  0  0  0  0  0  0  0  0  0
    3.3523    1.1104    0.0000 C   0  0  0  0  0  0  0  0  0  0  0  0
    2.6378    0.6979    0.0000 C   0  0  0  0  0  0  0  0  0  0  0  0
    1.9233    1.1104    0.0000 C   0  0  0  0  0  0  0  0  0  0  0  0
    1.1387    0.8555    0.0000 O   0  0  0  0  0  0  0  0  0  0  0  0
    0.6538    1.5229    0.0000 C   0  0  0  0  0  0  0  0  0  0  0  0
    1.1387    2.1904    0.0000 O   0  0  0  0  0  0  0  0  0  0  0  0
    1.9233    1.9354    0.0000 C   0  0  0  0  0  0  0  0  0  0  0  0
    2.6378    2.3479    0.0000 C   0  0  0  0  0  0  0  0  0  0  0  0
  1  2  1  0  0  0  0
  2  3  4  0  0  0  0
  3  4  4  0  0  0  0
  4  5  4  0  0  0  0
  5  6  4  0  0  0  0
  6  7  4  0  0  0  0
  2  7  4  0  0  0  0
  8  5  1  6  0  0  0
  8  9  1  0  0  0  0
  9 10  1  0  0  0  0
 10 11  1  0  0  0  0
 11 12  1  0  0  0  0
 12 13  1  0  0  0  0
  8 13  1  0  0  0  0
 13 14  1  1  0  0  0
 14 15  1  0  0  0  0
 15 16  1  0  0  0  0
 16 17  4  0  0  0  0
 17 18  4  0  0  0  0
 18 19  4  0  0  0  0
 19 20  1  0  0  0  0
 20 21  1  0  0  0  0
 21 22  1  0  0  0  0
 22 23  1  0  0  0  0
 19 23  4  0  0  0  0
 23 24  4  0  0  0  0
 16 24  4  0  0  0  0
M  END

> <ChembankId>
3197

> <SMILES>
Fc1ccc(cc1)[C@@H]2CCNC[C@H]2COc3ccc4OCOc4c3

> <InChI>
1/C19H20FNO3/c20-15-3-1-13(2-4-15)17-7-8-21-10-14(17)11-22-16-5-6-18-19(9-16)24-12-23-18/h1-6,9,14,17,21H,7-8,10-12H2

$$$$
470
  Marvin  11101114192D          

 12 12  0  0  0  0            999 V2000
   -2.8579   -1.6500    0.0000 O   0  0  0  0  0  0  0  0  0  0  0  0
   -2.1434   -2.0625    0.0000 C   0  0  0  0  0  0  0  0  0  0  0  0
   -2.1434   -2.8875    0.0000 O   0  0  0  0  0  0  0  0  0  0  0  0
   -1.4289   -1.6500    0.0000 C   0  0  0  0  0  0  0  0  0  0  0  0
   -0.7145   -2.0625    0.0000 C   0  0  0  0  0  0  0  0  0  0  0  0
    0.0000   -1.6500    0.0000 C   0  0  0  0  0  0  0  0  0  0  0  0
    0.7145   -2.0625    0.0000 C   0  0  0  0  0  0  0  0  0  0  0  0
    1.4289   -1.6500    0.0000 C   0  0  0  0  0  0  0  0  0  0  0  0
    2.1434   -2.0625    0.0000 C   0  0  0  0  0  0  0  0  0  0  0  0
    2.1434   -2.8875    0.0000 C   0  0  0  0  0  0  0  0  0  0  0  0
    1.4289   -3.3000    0.0000 C   0  0  0  0  0  0  0  0  0  0  0  0
    0.7145   -2.8875    0.0000 C   0  0  0  0  0  0  0  0  0  0  0  0
  1  2  1  0  0  0  0
  2  3  2  0  0  0  0
  2  4  1  0  0  0  0
  4  5  1  0  0  0  0
  5  6  1  0  0  0  0
  6  7  1  0  0  0  0
  7  8  4  0  0  0  0
  8  9  4  0  0  0  0
  9 10  4  0  0  0  0
 10 11  4  0  0  0  0
 11 12  4  0  0  0  0
  7 12  4  0  0  0  0
M  END

> <ChembankId>
470

> <SMILES>
OC(=O)CCCc1ccccc1

> <InChI>
1/C10H12O2/c11-10(12)8-4-7-9-5-2-1-3-6-9/h1-3,5-6H,4,7-8H2,(H,11,12)

$$$$
4362
  Marvin  11101114192D          

 23 26  0  0  0  0            999 V2000
    1.9594    3.9102    0.0000 C   0  0  0  0  0  0  0  0  0  0  0  0
    2.3173    3.1669    0.0000 N   0  0  0  0  0  0  0  0  0  0  0  0
    3.1400    3.1053    0.0000 C   0  0  0  0  0  0  0  0  0  0  0  0
    3.4980    2.3620    0.0000 C   0  0  0  0  0  0  0  0  0  0  0  0
    3.0332    1.6803    0.0000 N   0  0  0  0  0  0  0  0  0  0  0  0
    2.2105    1.7420    0.0000 C   0  0  0  0  0  0  0  0  0  0  0  0
    1.8526    2.4853    0.0000 C   0  0  0  0  0  0  0  0  0  0  0  0
    3.3912    0.9370    0.0000 C   0  0  0  0  0  0  0  0  0  0  0  0
    4.2162    0.9370    0.0000 N   0  0  0  0  0  0  0  0  0  0  0  0
    4.7305    0.2920    0.0000 C   0  0  0  0  0  0  0  0  0  0  0  0
    5.5189    0.5352    0.0000 C   0  0  0  0  0  0  0  0  0  0  0  0
    6.1237   -0.0260    0.0000 C   0  0  0  0  0  0  0  0  0  0  0  0
    5.9401   -0.8303    0.0000 C   0  0  0  0  0  0  0  0  0  0  0  0
    5.1517   -1.0735    0.0000 C   0  0  0  0  0  0  0  0  0  0  0  0
    4.5470   -0.5123    0.0000 C   0  0  0  0  0  0  0  0  0  0  0  0
    3.8037   -0.8703    0.0000 O   0  0  0  0  0  0  0  0  0  0  0  0
    3.0604   -0.5123    0.0000 C   0  0  0  0  0  0  0  0  0  0  0  0
    2.4556   -1.0735    0.0000 C   0  0  0  0  0  0  0  0  0  0  0  0
    1.6673   -0.8303    0.0000 C   0  0  0  0  0  0  0  0  0  0  0  0
    1.4837   -0.0260    0.0000 C   0  0  0  0  0  0  0  0  0  0  0  0
    0.6953    0.2172    0.0000 Cl  0  0  0  0  0  0  0  0  0  0  0  0
    2.0884    0.5352    0.0000 C   0  0  0  0  0  0  0  0  0  0  0  0
    2.8768    0.2920    0.0000 C   0  0  0  0  0  0  0  0  0  0  0  0
  1  2  1  0  0  0  0
  2  3  1  0  0  0  0
  3  4  1  0  0  0  0
  4  5  1  0  0  0  0
  5  6  1  0  0  0  0
  6  7  1  0  0  0  0
  2  7  1  0  0  0  0
  5  8  1  0  0  0  0
  8  9  2  0  0  0  0
  9 10  1  0  0  0  0
 10 11  4  0  0  0  0
 11 12  4  0  0  0  0
 12 13  4  0  0  0  0
 13 14  4  0  0  0  0
 14 15  4  0  0  0  0
 10 15  4  0  0  0  0
 15 16  1  0  0  0  0
 16 17  1  0  0  0  0
 17 18  4  0  0  0  0
 18 19  4  0  0  0  0
 19 20  4  0  0  0  0
 20 21  1  0  0  0  0
 20 22  4  0  0  0  0
 22 23  4  0  0  0  0
  8 23  1  0  0  0  0
 17 23  4  0  0  0  0
M  END

> <ChembankId>
4362

> <SMILES>
CN1CCN(CC1)C2=Nc3ccccc3Oc4ccc(Cl)cc24

> <InChI>
1/C18H18ClN3O/c1-21-8-10-22(11-9-21)18-14-12-13(19)6-7-16(14)23-17-5-3-2-4-15(17)20-18/h2-7,12H,8-11H2,1H3

$$$$
2830
  Marvin  11101114192D          

 30 34  0  0  0  0            999 V2000
    9.5969   -2.9710    0.0000 Cl  0  0  0  0  0  0  0  0  0  0  0  0
    8.8824   -3.3835    0.0000 C   0  0  0  0  0  0  0  0  0  0  0  0
    8.8824   -4.2085    0.0000 C   0  0  0  0  0  0  0  0  0  0  0  0
    8.1680   -4.6210    0.0000 C   0  0  0  0  0  0  0  0  0  0  0  0
    7.4535   -4.2085    0.0000 C   0  0  0  0  0  0  0  0  0  0  0  0
    6.6689   -4.4634    0.0000 N   0  0  0  0  0  0  0  0  0  0  0  0
    6.4139   -5.2480    0.0000 C   0  0  0  0  0  0  0  0  0  0  0  0
    6.9660   -5.8611    0.0000 C   0  0  0  0  0  0  0  0  0  0  0  0
    6.7110   -6.6458    0.0000 C   0  0  0  0  0  0  0  0  0  0  0  0
    5.9040   -6.8173    0.0000 N   0  0  0  0  0  0  0  0  0  0  0  0
    5.6491   -7.6019    0.0000 C   0  0  0  0  0  0  0  0  0  0  0  0
    6.2011   -8.2150    0.0000 C   0  0  0  0  0  0  0  0  0  0  0  0
    5.9462   -8.9996    0.0000 C   0  0  0  0  0  0  0  0  0  0  0  0
    6.4982   -9.6127    0.0000 N   0  0  0  0  0  0  0  0  0  0  0  0
    7.3187   -9.5265    0.0000 C   0  0  0  0  0  0  0  0  0  0  0  0
    7.7312   -8.8120    0.0000 O   0  0  0  0  0  0  0  0  0  0  0  0
    7.6543  -10.2802    0.0000 N   0  0  0  0  0  0  0  0  0  0  0  0
    7.0412  -10.8322    0.0000 C   0  0  0  0  0  0  0  0  0  0  0  0
    7.0412  -11.6572    0.0000 C   0  0  0  0  0  0  0  0  0  0  0  0
    6.3267  -12.0697    0.0000 C   0  0  0  0  0  0  0  0  0  0  0  0
    5.6122  -11.6572    0.0000 C   0  0  0  0  0  0  0  0  0  0  0  0
    5.6122  -10.8322    0.0000 C   0  0  0  0  0  0  0  0  0  0  0  0
    6.3267  -10.4197    0.0000 C   0  0  0  0  0  0  0  0  0  0  0  0
    5.3520   -6.2042    0.0000 C   0  0  0  0  0  0  0  0  0  0  0  0
    5.6070   -5.4196    0.0000 C   0  0  0  0  0  0  0  0  0  0  0  0
    6.1839   -3.7960    0.0000 C   0  0  0  0  0  0  0  0  0  0  0  0
    5.3589   -3.7960    0.0000 O   0  0  0  0  0  0  0  0  0  0  0  0
    6.6689   -3.1285    0.0000 N   0  0  0  0  0  0  0  0  0  0  0  0
    7.4535   -3.3835    0.0000 C   0  0  0  0  0  0  0  0  0  0  0  0
    8.1680   -2.9710    0.0000 C   0  0  0  0  0  0  0  0  0  0  0  0
  1  2  1  0  0  0  0
  2  3  4  0  0  0  0
  3  4  4  0  0  0  0
  4  5  4  0  0  0  0
  5  6  4  0  0  0  0
  6  7  1  0  0  0  0
  7  8  1  0  0  0  0
  8  9  1  0  0  0  0
  9 10  1  0  0  0  0
 10 11  1  0  0  0  0
 11 12  1  0  0  0  0
 12 13  1  0  0  0  0
 13 14  1  0  0  0  0
 14 15  4  0  0  0  0
 15 16  2  0  0  0  0
 15 17  4  0  0  0  0
 17 18  4  0  0  0  0
 18 19  4  0  0  0  0
 19 20  4  0  0  0  0
 20 21  4  0  0  0  0
 21 22  4  0  0  0  0
 22 23  4  0  0  0  0
 14 23  4  0  0  0  0
 18 23  4  0  0  0  0
 10 24  1  0  0  0  0
 24 25  1  0  0  0  0
  7 25  1  0  0  0  0
  6 26  4  0  0  0  0
 26 27  2  0  0  0  0
 26 28  4  0  0  0  0
 28 29  4  0  0  0  0
  5 29  4  0  0  0  0
 29 30  4  0  0  0  0
  2 30  4  0  0  0  0
M  STY  2   1 DAT   2 DAT
M  SAL   1  1  17
M  SDT   1 MRV_IMPLICIT_H                                        
M  SDD   1     0.0000    0.0000    DR    ALL  0       0  
M  SED   1 IMPL_H1
M  SAL   2  1  28
M  SDT   2 MRV_IMPLICIT_H                                        
M  SDD   2     0.0000    0.0000    DR    ALL  0       0  
M  SED   2 IMPL_H1
M  END

> <ChembankId>
2830

> <SMILES>
Clc1ccc2n(C3CCN(CCCn4c(=O)[nH]c5ccccc45)CC3)c(=O)[nH]c2c1

> <InChI>
1/C22H24ClN5O2/c23-15-6-7-20-18(14-15)25-22(30)28(20)16-8-12-26(13-9-16)10-3-11-27-19-5-2-1-4-17(19)24-21(27)29/h1-2,4-7,14,16H,3,8-13H2,(H,24,29)(H,25,30)

$$$$
2129
  Marvin  11101114192D          

 12 12  0  0  0  0            999 V2000
    2.9760    1.9462    0.0000 O   0  0  0  0  0  0  0  0  0  0  0  0
    2.1913    1.6913    0.0000 C   0  0  0  0  0  0  0  0  0  0  0  0
    2.0198    0.8843    0.0000 C   0  0  0  0  0  0  0  0  0  0  0  0
    2.6329    0.3323    0.0000 O   0  0  0  0  0  0  0  0  0  0  0  0
    1.2352    0.6294    0.0000 C   0  0  0  0  0  0  0  0  0  0  0  0
    0.9803   -0.1553    0.0000 O   0  0  0  0  0  0  0  0  0  0  0  0
    0.1553   -0.1553    0.0000 C   0  0  0  0  0  0  0  0  0  0  0  0
   -0.3297   -0.8227    0.0000 O   0  0  0  0  0  0  0  0  0  0  0  0
   -0.0997    0.6294    0.0000 C   0  0  0  0  0  0  0  0  0  0  0  0
    0.5678    1.1143    0.0000 C   0  0  0  0  0  0  0  0  0  0  0  0
    0.5678    1.9393    0.0000 O   0  0  0  0  0  0  0  0  0  0  0  0
   -0.8843    0.8843    0.0000 O   0  0  0  0  0  0  0  0  0  0  0  0
  1  2  1  0  0  0  0
  2  3  1  0  0  0  0
  3  4  1  0  0  0  0
  3  5  1  0  0  0  0
  5  6  1  0  0  0  0
  6  7  1  0  0  0  0
  7  8  2  0  0  0  0
  7  9  1  0  0  0  0
  9 10  2  0  0  0  0
  5 10  1  0  0  0  0
 10 11  1  0  0  0  0
  9 12  1  0  0  0  0
M  END

> <ChembankId>
2129

> <SMILES>
OCC(O)C1OC(=O)C(=C1O)O

> <InChI>
1/C6H8O6/c7-1-2(8)5-3(9)4(10)6(11)12-5/h2,5,7-10H,1H2

$$$$
1001314
  Marvin  11101114192D          

 58 61  0  0  1  0            999 V2000
   -2.1213   -4.8115    0.0000 C   0  0  0  0  0  0  0  0  0  0  0  0
   -1.6594   -4.1078    0.0000 C   0  0  0  0  0  0  0  0  0  0  0  0
   -1.4637   -3.2321    0.0000 C   0  0  1  0  0  0  0  0  0  0  0  0
   -2.1883   -3.6265    0.0000 O   0  0  0  0  0  0  0  0  0  0  0  0
   -2.8922   -3.1962    0.0000 C   0  0  0  0  0  0  0  0  0  0  0  0
   -3.2680   -3.9802    0.0000 O   0  0  0  0  0  0  0  0  0  0  0  0
   -2.8714   -2.3715    0.0000 C   0  0  2  0  0  0  0  0  0  0  0  0
   -3.8507   -2.3547    0.0000 C   0  0  0  0  0  0  0  0  0  0  0  0
   -2.1468   -1.9771    0.0000 C   0  0  1  0  0  0  0  0  0  0  0  0
   -2.8641   -1.5520    0.0000 O   0  0  0  0  0  0  0  0  0  0  0  0
   -3.5753   -1.9412    0.0000 C   0  0  1  0  0  0  0  0  0  0  0  0
   -3.5960   -2.7659    0.0000 C   0  0  0  0  0  0  0  0  0  0  0  0
   -4.3207   -3.1603    0.0000 C   0  0  1  0  0  0  0  0  0  0  0  0
   -3.8064   -3.8054    0.0000 C   0  0  0  0  0  0  0  0  0  0  0  0
   -4.8667   -3.7788    0.0000 O   0  0  0  0  0  0  0  0  0  0  0  0
   -4.6041   -4.5609    0.0000 C   0  0  0  0  0  0  0  0  0  0  0  0
   -5.0245   -2.7300    0.0000 C   0  0  1  0  0  0  0  0  0  0  0  0
   -5.7491   -3.1244    0.0000 O   0  0  0  0  0  0  0  0  0  0  0  0
   -5.0038   -1.9052    0.0000 C   0  0  2  0  0  0  0  0  0  0  0  0
   -5.7077   -1.4749    0.0000 C   0  0  0  0  0  0  0  0  0  0  0  0
   -4.2792   -1.5108    0.0000 O   0  0  0  0  0  0  0  0  0  0  0  0
   -2.1261   -1.1523    0.0000 C   0  0  2  0  0  0  0  0  0  0  0  0
   -2.8379   -0.7213    0.0000 C   0  0  0  0  0  0  0  0  0  0  0  0
   -1.4015   -0.7579    0.0000 C   0  0  1  0  0  0  0  0  0  0  0  0
   -1.3656    0.0827    0.0000 O   0  0  0  0  0  0  0  0  0  0  0  0
   -2.0846    0.4972    0.0000 C   0  0  2  0  0  0  0  0  0  0  0  0
   -2.8092    0.1027    0.0000 O   0  0  0  0  0  0  0  0  0  0  0  0
   -3.5131    0.5331    0.0000 C   0  0  2  0  0  0  0  0  0  0  0  0
   -4.2377    0.1387    0.0000 C   0  0  0  0  0  0  0  0  0  0  0  0
   -3.4924    1.3578    0.0000 C   0  0  0  0  0  0  0  0  0  0  0  0
   -2.7677    1.7522    0.0000 C   0  0  1  0  0  0  0  0  0  0  0  0
   -2.0639    1.3219    0.0000 C   0  0  1  0  0  0  0  0  0  0  0  0
   -1.3710    1.8074    0.0000 O   0  0  0  0  0  0  0  0  0  0  0  0
   -2.7470    2.5770    0.0000 N   0  0  0  0  0  0  0  0  0  0  0  0
   -2.0224    2.9714    0.0000 C   0  0  0  0  0  0  0  0  0  0  0  0
   -3.4509    3.0073    0.0000 C   0  0  0  0  0  0  0  0  0  0  0  0
   -0.6976   -1.1882    0.0000 C   0  0  2  0  0  0  0  0  0  0  0  0
   -0.6186   -0.3183    0.0000 C   0  0  0  0  0  0  0  0  0  0  0  0
    0.1275   -1.1512    0.0000 O   0  0  0  0  0  0  0  0  0  0  0  0
    0.0270   -0.7938    0.0000 C   0  0  0  0  0  0  0  0  0  0  0  0
    0.7309   -1.2242    0.0000 C   0  0  1  0  0  0  0  0  0  0  0  0
    1.4815   -0.8205    0.0000 C   0  0  0  0  0  0  0  0  0  0  0  0
    0.7102   -2.0489    0.0000 C   0  0  2  0  0  0  0  0  0  0  0  0
    1.4140   -2.4792    0.0000 N   0  0  0  0  0  0  0  0  0  0  0  0
    1.3933   -3.3040    0.0000 C   0  0  1  0  0  0  0  0  0  0  0  0
    2.1397   -3.7646    0.0000 C   0  0  0  0  0  0  0  0  0  0  0  0
    2.8422   -3.3185    0.0000 O   0  0  0  0  0  0  0  0  0  0  0  0
    3.5202   -3.8229    0.0000 C   0  0  0  0  0  0  0  0  0  0  0  0
    4.2920   -3.4271    0.0000 C   0  0  0  0  0  0  0  0  0  0  0  0
    5.0549   -3.7646    0.0000 O   0  0  0  0  0  0  0  0  0  0  0  0
    5.7976   -3.4212    0.0000 C   0  0  0  0  0  0  0  0  0  0  0  0
    0.6687   -3.6984    0.0000 O   0  0  0  0  0  0  0  0  0  0  0  0
   -0.0352   -3.2680    0.0000 C   0  0  2  0  0  0  0  0  0  0  0  0
   -0.0144   -2.4433    0.0000 C   0  0  1  0  0  0  0  0  0  0  0  0
   -0.8277   -2.3389    0.0000 C   0  0  0  0  0  0  0  0  0  0  0  0
   -0.7598   -3.6625    0.0000 C   0  0  1  0  0  0  0  0  0  0  0  0
   -0.1367   -4.3882    0.0000 C   0  0  0  0  0  0  0  0  0  0  0  0
   -0.5103   -4.5046    0.0000 O   0  0  0  0  0  0  0  0  0  0  0  0
  1  2  1  0  0  0  0
  3  2  1  6  0  0  0
  3  4  1  0  0  0  0
  4  5  1  0  0  0  0
  5  6  2  0  0  0  0
  5  7  1  0  0  0  0
  7  8  1  6  0  0  0
  7  9  1  0  0  0  0
  9 10  1  6  0  0  0
 11 10  1  1  0  0  0
 11 12  1  0  0  0  0
 12 13  1  0  0  0  0
 13 14  1  6  0  0  0
 13 15  1  1  0  0  0
 15 16  1  0  0  0  0
 13 17  1  0  0  0  0
 17 18  1  1  0  0  0
 17 19  1  0  0  0  0
 19 20  1  6  0  0  0
 19 21  1  0  0  0  0
 11 21  1  0  0  0  0
  9 22  1  0  0  0  0
 22 23  1  6  0  0  0
 22 24  1  0  0  0  0
 24 25  1  1  0  0  0
 26 25  1  6  0  0  0
 26 27  1  0  0  0  0
 27 28  1  0  0  0  0
 28 29  1  6  0  0  0
 28 30  1  0  0  0  0
 30 31  1  0  0  0  0
 31 32  1  0  0  0  0
 26 32  1  0  0  0  0
 32 33  1  1  0  0  0
 31 34  1  6  0  0  0
 34 35  1  0  0  0  0
 34 36  1  0  0  0  0
 24 37  1  0  0  0  0
 37 38  1  6  0  0  0
 37 39  1  6  0  0  0
 37 40  1  0  0  0  0
 40 41  1  0  0  0  0
 41 42  1  1  0  0  0
 41 43  1  0  0  0  0
 43 44  1  6  0  0  0
 44 45  1  0  0  0  0
 45 46  1  1  0  0  0
 46 47  1  0  0  0  0
 47 48  1  0  0  0  0
 48 49  1  0  0  0  0
 49 50  1  0  0  0  0
 50 51  1  0  0  0  0
 45 52  1  0  0  0  0
 53 52  1  1  0  0  0
 53 54  1  0  0  0  0
 43 54  1  0  0  0  0
 54 55  1  1  0  0  0
 53 56  1  0  0  0  0
  3 56  1  0  0  0  0
 56 57  1  1  0  0  0
 56 58  1  6  0  0  0
M  END

> <ChembankId>
1001314

> <SMILES>
CC[C@H]1OC(=O)[C@H](C)[C@@H](O[C@H]2C[C@@](C)(OC)[C@@H](O)[C@H](C)O2)[C@H](C)[C@@H](O[C@@H]3O[C@H](C)C[C@@H]([C@H]3O)N(C)C)[C@](C)(O)C[C@@H](C)[C@@H]4N[C@@H](COCCOC)O[C@H]([C@H]4C)[C@]1(C)O

> <InChI>
1/C42H78N2O14/c1-15-29-42(10,49)37-24(4)32(43-30(56-37)21-52-17-16-50-13)22(2)19-40(8,48)36(58-39-33(45)28(44(11)12)18-23(3)53-39)25(5)34(26(6)38(47)55-29)57-31-20-41(9,51-14)35(46)27(7)54-31/h22-37,39,43,45-46,48-49H,15-21H2,1-14H3

$$$$
3474312
  Marvin  11101114192D          

 22 24  0  0  0  0            999 V2000
    0.5704   -3.3642    0.0000 C   0  0  0  0  0  0  0  0  0  0  0  0
    1.2848   -2.9517    0.0000 C   0  0  0  0  0  0  0  0  0  0  0  0
    1.2848   -2.1267    0.0000 C   0  0  0  0  0  0  0  0  0  0  0  0
    1.9993   -1.7142    0.0000 C   0  0  0  0  0  0  0  0  0  0  0  0
    2.7138   -2.1267    0.0000 C   0  0  0  0  0  0  0  0  0  0  0  0
    2.7138   -2.9517    0.0000 C   0  0  0  0  0  0  0  0  0  0  0  0
    1.9993   -3.3642    0.0000 C   0  0  0  0  0  0  0  0  0  0  0  0
    3.4282   -1.7142    0.0000 S   0  0  0  0  0  0  0  0  0  0  0  0
    3.8407   -2.4287    0.0000 O   0  0  0  0  0  0  0  0  0  0  0  0
    3.0157   -0.9998    0.0000 O   0  0  0  0  0  0  0  0  0  0  0  0
    4.1427   -1.3017    0.0000 N   0  0  0  0  0  0  0  0  0  0  0  0
    4.8572   -1.7142    0.0000 C   0  0  0  0  0  0  0  0  0  0  0  0
    4.8572   -2.5392    0.0000 O   0  0  0  0  0  0  0  0  0  0  0  0
    5.5717   -1.3017    0.0000 N   0  0  0  0  0  0  0  0  0  0  0  0
    6.2861   -1.7142    0.0000 N   0  0  0  0  0  0  0  0  0  0  0  0
    7.0398   -1.3787    0.0000 C   0  0  0  0  0  0  0  0  0  0  0  0
    7.5918   -1.9918    0.0000 C   0  0  0  0  0  0  0  0  0  0  0  0
    8.3988   -2.1633    0.0000 C   0  0  0  0  0  0  0  0  0  0  0  0
    8.4850   -2.9838    0.0000 C   0  0  0  0  0  0  0  0  0  0  0  0
    7.7314   -3.3193    0.0000 C   0  0  0  0  0  0  0  0  0  0  0  0
    7.1793   -2.7062    0.0000 C   0  0  0  0  0  0  0  0  0  0  0  0
    6.3724   -2.5347    0.0000 C   0  0  0  0  0  0  0  0  0  0  0  0
  1  2  1  0  0  0  0
  2  3  4  0  0  0  0
  3  4  4  0  0  0  0
  4  5  4  0  0  0  0
  5  6  4  0  0  0  0
  6  7  4  0  0  0  0
  2  7  4  0  0  0  0
  5  8  1  0  0  0  0
  8  9  2  0  0  0  0
  8 10  2  0  0  0  0
  8 11  1  0  0  0  0
 11 12  1  0  0  0  0
 12 13  2  0  0  0  0
 12 14  1  0  0  0  0
 14 15  1  0  0  0  0
 15 16  1  0  0  0  0
 16 17  1  0  0  0  0
 17 18  1  0  0  0  0
 18 19  1  0  0  0  0
 19 20  1  0  0  0  0
 20 21  1  0  0  0  0
 17 21  1  0  0  0  0
 21 22  1  0  0  0  0
 15 22  1  0  0  0  0
M  END

> <ChembankId>
3474312

> <SMILES>
Cc1ccc(cc1)S(=O)(=O)NC(=O)NN2CC3CCCC3C2

> <InChI>
1/C15H21N3O3S/c1-11-5-7-14(8-6-11)22(20,21)17-15(19)16-18-9-12-3-2-4-13(12)10-18/h5-8,12-13H,2-4,9-10H2,1H3,(H2,16,17,19)

$$$$
1000219
  Marvin  11101114192D          

 24 25  0  0  1  0            999 V2000
    0.7145   -0.4125    0.0000 N   0  0  0  0  0  0  0  0  0  0  0  0
    1.4289    0.0000    0.0000 C   0  0  1  0  0  0  0  0  0  0  0  0
    2.1434   -0.4125    0.0000 C   0  0  0  0  0  0  0  0  0  0  0  0
    2.1434   -1.2375    0.0000 C   0  0  0  0  0  0  0  0  0  0  0  0
    2.8579   -1.6500    0.0000 C   0  0  0  0  0  0  0  0  0  0  0  0
    2.8579   -2.4750    0.0000 C   0  0  0  0  0  0  0  0  0  0  0  0
    3.5724   -2.8875    0.0000 I   0  0  0  0  0  0  0  0  0  0  0  0
    2.1434   -2.8875    0.0000 C   0  0  0  0  0  0  0  0  0  0  0  0
    2.1434   -3.7125    0.0000 O   0  0  0  0  0  0  0  0  0  0  0  0
    1.4289   -4.1250    0.0000 C   0  0  0  0  0  0  0  0  0  0  0  0
    1.4289   -4.9500    0.0000 C   0  0  0  0  0  0  0  0  0  0  0  0
    0.7145   -5.3625    0.0000 C   0  0  0  0  0  0  0  0  0  0  0  0
    0.7145   -6.1875    0.0000 I   0  0  0  0  0  0  0  0  0  0  0  0
   -0.0000   -4.9500    0.0000 C   0  0  0  0  0  0  0  0  0  0  0  0
   -0.7145   -5.3625    0.0000 O   0  0  0  0  0  0  0  0  0  0  0  0
   -0.0000   -4.1250    0.0000 C   0  0  0  0  0  0  0  0  0  0  0  0
   -0.7145   -3.7125    0.0000 I   0  0  0  0  0  0  0  0  0  0  0  0
    0.7145   -3.7125    0.0000 C   0  0  0  0  0  0  0  0  0  0  0  0
    1.4289   -2.4750    0.0000 C   0  0  0  0  0  0  0  0  0  0  0  0
    0.7145   -2.8875    0.0000 I   0  0  0  0  0  0  0  0  0  0  0  0
    1.4289   -1.6500    0.0000 C   0  0  0  0  0  0  0  0  0  0  0  0
    1.4289    0.8250    0.0000 C   0  0  0  0  0  0  0  0  0  0  0  0
    0.7145    1.2375    0.0000 O   0  0  0  0  0  0  0  0  0  0  0  0
    2.1434    1.2375    0.0000 O   0  0  0  0  0  0  0  0  0  0  0  0
  2  1  1  6  0  0  0
  2  3  1  0  0  0  0
  3  4  1  0  0  0  0
  4  5  4  0  0  0  0
  5  6  4  0  0  0  0
  6  7  1  0  0  0  0
  6  8  4  0  0  0  0
  8  9  1  0  0  0  0
  9 10  1  0  0  0  0
 10 11  4  0  0  0  0
 11 12  4  0  0  0  0
 12 13  1  0  0  0  0
 12 14  4  0  0  0  0
 14 15  1  0  0  0  0
 14 16  4  0  0  0  0
 16 17  1  0  0  0  0
 16 18  4  0  0  0  0
 10 18  4  0  0  0  0
  8 19  4  0  0  0  0
 19 20  1  0  0  0  0
 19 21  4  0  0  0  0
  4 21  4  0  0  0  0
  2 22  1  0  0  0  0
 22 23  2  0  0  0  0
 22 24  1  0  0  0  0
M  END

> <ChembankId>
1000219

> <SMILES>
N[C@@H](Cc1cc(I)c(Oc2cc(I)c(O)c(I)c2)c(I)c1)C(=O)O

> <InChI>
1/C15H11I4NO4/c16-8-4-7(5-9(17)13(8)21)24-14-10(18)1-6(2-11(14)19)3-12(20)15(22)23/h1-2,4-5,12,21H,3,20H2,(H,22,23)

$$$$
2060483
  Marvin  11101114192D          

 12 11  0  0  1  0            999 V2000
    1.7605    1.8414    0.0000 C   0  0  0  0  0  0  0  0  0  0  0  0
    2.4750    1.4289    0.0000 C   0  0  0  0  0  0  0  0  0  0  0  0
    2.4750    0.6039    0.0000 O   0  0  0  0  0  0  0  0  0  0  0  0
    3.1895    1.8414    0.0000 N   0  0  0  0  0  0  0  0  0  0  0  0
    3.9039    1.4289    0.0000 C   0  0  1  0  0  0  0  0  0  0  0  0
    4.6184    1.8414    0.0000 C   0  0  0  0  0  0  0  0  0  0  0  0
    5.3329    1.4289    0.0000 C   0  0  0  0  0  0  0  0  0  0  0  0
    6.0474    1.8414    0.0000 O   0  0  0  0  0  0  0  0  0  0  0  0
    5.3329    0.6039    0.0000 O   0  0  0  0  0  0  0  0  0  0  0  0
    3.9039    0.6039    0.0000 C   0  0  0  0  0  0  0  0  0  0  0  0
    4.6184    0.1914    0.0000 O   0  0  0  0  0  0  0  0  0  0  0  0
    3.1895    0.1914    0.0000 O   0  0  0  0  0  0  0  0  0  0  0  0
  1  2  1  0  0  0  0
  2  3  2  0  0  0  0
  2  4  1  0  0  0  0
  5  4  1  1  0  0  0
  5  6  1  0  0  0  0
  6  7  1  0  0  0  0
  7  8  2  0  0  0  0
  7  9  1  0  0  0  0
  5 10  1  0  0  0  0
 10 11  2  0  0  0  0
 10 12  1  0  0  0  0
M  END

> <ChembankId>
2060483

> <SMILES>
CC(=O)N[C@@H](CC(=O)O)C(=O)O

> <InChI>
1/C6H9NO5/c1-3(8)7-4(6(11)12)2-5(9)10/h4H,2H2,1H3,(H,7,8)(H,9,10)(H,11,12)

$$$$
2060486
  Marvin  11101114192D          

 22 23  0  0  0  0            999 V2000
    0.7145   -0.4125    0.0000 C   0  0  0  0  0  0  0  0  0  0  0  0
    0.7145   -1.2375    0.0000 C   0  0  0  0  0  0  0  0  0  0  0  0
    1.4289   -1.6500    0.0000 O   0  0  0  0  0  0  0  0  0  0  0  0
    0.0000   -1.6500    0.0000 O   0  0  0  0  0  0  0  0  0  0  0  0
    0.0000   -2.4750    0.0000 C   0  0  0  0  0  0  0  0  0  0  0  0
    0.7145   -2.8875    0.0000 C   0  0  0  0  0  0  0  0  0  0  0  0
    0.7145   -3.7125    0.0000 C   0  0  0  0  0  0  0  0  0  0  0  0
    0.0000   -4.1250    0.0000 C   0  0  0  0  0  0  0  0  0  0  0  0
   -0.7145   -3.7125    0.0000 C   0  0  0  0  0  0  0  0  0  0  0  0
   -0.7145   -2.8875    0.0000 C   0  0  0  0  0  0  0  0  0  0  0  0
   -1.4289   -2.4750    0.0000 C   0  0  0  0  0  0  0  0  0  0  0  0
   -2.1434   -2.8875    0.0000 O   0  0  0  0  0  0  0  0  0  0  0  0
   -1.4289   -1.6500    0.0000 O   0  0  0  0  0  0  0  0  0  0  0  0
   -2.1434   -1.2375    0.0000 C   0  0  0  0  0  0  0  0  0  0  0  0
   -2.8579   -1.6500    0.0000 C   0  0  0  0  0  0  0  0  0  0  0  0
   -3.5724   -1.2375    0.0000 C   0  0  0  0  0  0  0  0  0  0  0  0
   -3.5724   -0.4125    0.0000 C   0  0  0  0  0  0  0  0  0  0  0  0
   -2.8579   -0.0000    0.0000 C   0  0  0  0  0  0  0  0  0  0  0  0
   -2.1434   -0.4125    0.0000 C   0  0  0  0  0  0  0  0  0  0  0  0
   -1.4289    0.0000    0.0000 C   0  0  0  0  0  0  0  0  0  0  0  0
   -0.7145   -0.4125    0.0000 O   0  0  0  0  0  0  0  0  0  0  0  0
   -1.4289    0.8250    0.0000 O   0  0  0  0  0  0  0  0  0  0  0  0
  1  2  1  0  0  0  0
  2  3  2  0  0  0  0
  2  4  1  0  0  0  0
  4  5  1  0  0  0  0
  5  6  4  0  0  0  0
  6  7  4  0  0  0  0
  7  8  4  0  0  0  0
  8  9  4  0  0  0  0
  9 10  4  0  0  0  0
  5 10  4  0  0  0  0
 10 11  1  0  0  0  0
 11 12  2  0  0  0  0
 11 13  1  0  0  0  0
 13 14  1  0  0  0  0
 14 15  4  0  0  0  0
 15 16  4  0  0  0  0
 16 17  4  0  0  0  0
 17 18  4  0  0  0  0
 18 19  4  0  0  0  0
 14 19  4  0  0  0  0
 19 20  1  0  0  0  0
 20 21  2  0  0  0  0
 20 22  1  0  0  0  0
M  END

> <ChembankId>
2060486

> <SMILES>
CC(=O)Oc1ccccc1C(=O)Oc2ccccc2C(=O)O

> <InChI>
1/C16H12O6/c1-10(17)21-14-9-5-3-7-12(14)16(20)22-13-8-4-2-6-11(13)15(18)19/h2-9H,1H3,(H,18,19)

$$$$
907273
  Marvin  11101114192D          

 33 36  0  0  0  0            999 V2000
    2.1434   -0.4125    0.0000 F   0  0  0  0  0  0  0  0  0  0  0  0
    2.1434   -1.2375    0.0000 C   0  0  0  0  0  0  0  0  0  0  0  0
    2.8579   -1.6500    0.0000 C   0  0  0  0  0  0  0  0  0  0  0  0
    2.8579   -2.4750    0.0000 C   0  0  0  0  0  0  0  0  0  0  0  0
    2.1434   -2.8875    0.0000 C   0  0  0  0  0  0  0  0  0  0  0  0
    1.4289   -2.4750    0.0000 C   0  0  0  0  0  0  0  0  0  0  0  0
    1.4289   -1.6500    0.0000 C   0  0  0  0  0  0  0  0  0  0  0  0
    2.1434   -3.7125    0.0000 C   0  0  0  0  0  0  0  0  0  0  0  0
    2.8579   -4.1250    0.0000 O   0  0  0  0  0  0  0  0  0  0  0  0
    2.8579   -4.9500    0.0000 C   0  0  0  0  0  0  0  0  0  0  0  0
    3.5724   -5.3625    0.0000 C   0  0  0  0  0  0  0  0  0  0  0  0
    3.5724   -6.1875    0.0000 N   0  0  0  0  0  0  0  0  0  0  0  0
    4.2868   -6.6000    0.0000 C   0  0  0  0  0  0  0  0  0  0  0  0
    4.2868   -7.4250    0.0000 C   0  0  0  0  0  0  0  0  0  0  0  0
    3.5724   -7.8375    0.0000 N   0  0  0  0  0  0  0  0  0  0  0  0
    3.5724   -8.6625    0.0000 C   0  0  0  0  0  0  0  0  0  0  0  0
    2.8579   -9.0750    0.0000 C   0  0  0  0  0  0  0  0  0  0  0  0
    2.8579   -9.9000    0.0000 C   0  0  0  0  0  0  0  0  0  0  0  0
    3.5724  -10.3125    0.0000 C   0  0  0  0  0  0  0  0  0  0  0  0
    4.2868   -9.9000    0.0000 C   0  0  0  0  0  0  0  0  0  0  0  0
    5.0013  -10.3125    0.0000 C   0  0  0  0  0  0  0  0  0  0  0  0
    5.0013  -11.1375    0.0000 C   0  0  0  0  0  0  0  0  0  0  0  0
    4.2868  -11.5500    0.0000 C   0  0  0  0  0  0  0  0  0  0  0  0
    3.5724  -11.1375    0.0000 C   0  0  0  0  0  0  0  0  0  0  0  0
    2.8579   -7.4250    0.0000 C   0  0  0  0  0  0  0  0  0  0  0  0
    2.8579   -6.6000    0.0000 C   0  0  0  0  0  0  0  0  0  0  0  0
    1.4289   -4.1250    0.0000 C   0  0  0  0  0  0  0  0  0  0  0  0
    1.4289   -4.9500    0.0000 C   0  0  0  0  0  0  0  0  0  0  0  0
    0.7145   -5.3625    0.0000 C   0  0  0  0  0  0  0  0  0  0  0  0
   -0.0000   -4.9500    0.0000 C   0  0  0  0  0  0  0  0  0  0  0  0
   -0.7145   -5.3625    0.0000 F   0  0  0  0  0  0  0  0  0  0  0  0
   -0.0000   -4.1250    0.0000 C   0  0  0  0  0  0  0  0  0  0  0  0
    0.7145   -3.7125    0.0000 C   0  0  0  0  0  0  0  0  0  0  0  0
  1  2  1  0  0  0  0
  2  3  4  0  0  0  0
  3  4  4  0  0  0  0
  4  5  4  0  0  0  0
  5  6  4  0  0  0  0
  6  7  4  0  0  0  0
  2  7  4  0  0  0  0
  5  8  1  0  0  0  0
  8  9  1  0  0  0  0
  9 10  1  0  0  0  0
 10 11  1  0  0  0  0
 11 12  1  0  0  0  0
 12 13  1  0  0  0  0
 13 14  1  0  0  0  0
 14 15  1  0  0  0  0
 15 16  1  0  0  0  0
 16 17  1  0  0  0  0
 17 18  1  0  0  0  0
 18 19  1  0  0  0  0
 19 20  4  0  0  0  0
 20 21  4  0  0  0  0
 21 22  4  0  0  0  0
 22 23  4  0  0  0  0
 23 24  4  0  0  0  0
 19 24  4  0  0  0  0
 15 25  1  0  0  0  0
 25 26  1  0  0  0  0
 12 26  1  0  0  0  0
  8 27  1  0  0  0  0
 27 28  4  0  0  0  0
 28 29  4  0  0  0  0
 29 30  4  0  0  0  0
 30 31  1  0  0  0  0
 30 32  4  0  0  0  0
 32 33  4  0  0  0  0
 27 33  4  0  0  0  0
M  END

> <ChembankId>
907273

> <SMILES>
Fc1ccc(cc1)C(OCCN2CCN(CCCc3ccccc3)CC2)c4ccc(F)cc4

> <InChI>
1/C28H32F2N2O/c29-26-12-8-24(9-13-26)28(25-10-14-27(30)15-11-25)33-22-21-32-19-17-31(18-20-32)16-4-7-23-5-2-1-3-6-23/h1-3,5-6,8-15,28H,4,7,16-22H2

$$$$
1765
  Marvin  11101114192D          

 22 23  0  0  0  0            999 V2000
    1.2665   -0.6244    0.0000 C   0  0  0  0  0  0  0  0  0  0  0  0
    0.7145   -1.2375    0.0000 C   0  0  0  0  0  0  0  0  0  0  0  0
    0.1624   -0.6244    0.0000 C   0  0  0  0  0  0  0  0  0  0  0  0
    1.3819   -1.7224    0.0000 N   0  0  0  0  0  0  0  0  0  0  0  0
    1.1270   -2.5070    0.0000 C   0  0  0  0  0  0  0  0  0  0  0  0
    1.6119   -3.1745    0.0000 O   0  0  0  0  0  0  0  0  0  0  0  0
    0.3020   -2.5070    0.0000 N   0  0  0  0  0  0  0  0  0  0  0  0
    0.0470   -1.7224    0.0000 C   0  0  0  0  0  0  0  0  0  0  0  0
   -0.7376   -1.4675    0.0000 O   0  0  0  0  0  0  0  0  0  0  0  0
   -0.1830   -3.1745    0.0000 C   0  0  0  0  0  0  0  0  0  0  0  0
    0.1526   -3.9282    0.0000 C   0  0  0  0  0  0  0  0  0  0  0  0
   -0.3323   -4.5956    0.0000 C   0  0  0  0  0  0  0  0  0  0  0  0
   -1.1528   -4.5094    0.0000 C   0  0  0  0  0  0  0  0  0  0  0  0
   -1.6377   -5.1768    0.0000 N   0  3  0  0  0  0  0  0  0  0  0  0
   -1.3022   -5.9305    0.0000 O   0  0  0  0  0  0  0  0  0  0  0  0
   -2.4582   -5.0906    0.0000 O   0  5  0  0  0  0  0  0  0  0  0  0
   -1.4884   -3.7557    0.0000 C   0  0  0  0  0  0  0  0  0  0  0  0
   -1.0034   -3.0882    0.0000 C   0  0  0  0  0  0  0  0  0  0  0  0
   -2.3088   -3.6695    0.0000 C   0  0  0  0  0  0  0  0  0  0  0  0
   -3.1293   -3.5832    0.0000 F   0  0  0  0  0  0  0  0  0  0  0  0
   -2.2226   -2.8490    0.0000 F   0  0  0  0  0  0  0  0  0  0  0  0
   -2.3951   -4.4899    0.0000 F   0  0  0  0  0  0  0  0  0  0  0  0
  1  2  1  0  0  0  0
  2  3  1  0  0  0  0
  2  4  1  0  0  0  0
  4  5  1  0  0  0  0
  5  6  2  0  0  0  0
  5  7  1  0  0  0  0
  7  8  1  0  0  0  0
  2  8  1  0  0  0  0
  8  9  2  0  0  0  0
  7 10  1  0  0  0  0
 10 11  4  0  0  0  0
 11 12  4  0  0  0  0
 12 13  4  0  0  0  0
 13 14  1  0  0  0  0
 14 15  2  0  0  0  0
 14 16  1  0  0  0  0
 13 17  4  0  0  0  0
 17 18  4  0  0  0  0
 10 18  4  0  0  0  0
 17 19  1  0  0  0  0
 19 20  1  0  0  0  0
 19 21  1  0  0  0  0
 19 22  1  0  0  0  0
M  CHG  2  14   1  16  -1
M  END

> <ChembankId>
1765

> <SMILES>
CC1(C)NC(=O)N(C1=O)c2ccc([N+](=O)[O-])c(c2)C(F)(F)F

> <InChI>
1/C12H10F3N3O4/c1-11(2)9(19)17(10(20)16-11)6-3-4-8(18(21)22)7(5-6)12(13,14)15/h3-5H,1-2H3,(H,16,20)

$$$$
1000807
  Marvin  11101114192D          

 20 22  0  0  0  0            999 V2000
   -0.7145   -0.4125    0.0000 C   0  0  0  0  0  0  0  0  0  0  0  0
   -0.7145   -1.2375    0.0000 N   0  0  0  0  0  0  0  0  0  0  0  0
    0.0000   -1.6500    0.0000 C   0  0  0  0  0  0  0  0  0  0  0  0
    0.0000   -2.4750    0.0000 C   0  0  0  0  0  0  0  0  0  0  0  0
   -0.7145   -2.8875    0.0000 N   0  0  0  0  0  0  0  0  0  0  0  0
   -1.4289   -2.4750    0.0000 C   0  0  0  0  0  0  0  0  0  0  0  0
   -1.4289   -1.6500    0.0000 C   0  0  0  0  0  0  0  0  0  0  0  0
   -0.7145   -3.7125    0.0000 C   0  0  0  0  0  0  0  0  0  0  0  0
   -1.4289   -4.1250    0.0000 C   0  0  0  0  0  0  0  0  0  0  0  0
   -1.4289   -4.9500    0.0000 C   0  0  0  0  0  0  0  0  0  0  0  0
   -2.1434   -5.3625    0.0000 C   0  0  0  0  0  0  0  0  0  0  0  0
   -2.8579   -4.9500    0.0000 C   0  0  0  0  0  0  0  0  0  0  0  0
   -2.8579   -4.1250    0.0000 C   0  0  0  0  0  0  0  0  0  0  0  0
   -2.1434   -3.7125    0.0000 C   0  0  0  0  0  0  0  0  0  0  0  0
   -0.0000   -4.1250    0.0000 C   0  0  0  0  0  0  0  0  0  0  0  0
    0.7145   -3.7125    0.0000 C   0  0  0  0  0  0  0  0  0  0  0  0
    1.4289   -4.1250    0.0000 C   0  0  0  0  0  0  0  0  0  0  0  0
    1.4289   -4.9500    0.0000 C   0  0  0  0  0  0  0  0  0  0  0  0
    0.7145   -5.3625    0.0000 C   0  0  0  0  0  0  0  0  0  0  0  0
   -0.0000   -4.9500    0.0000 C   0  0  0  0  0  0  0  0  0  0  0  0
  1  2  1  0  0  0  0
  2  3  1  0  0  0  0
  3  4  1  0  0  0  0
  4  5  1  0  0  0  0
  5  6  1  0  0  0  0
  6  7  1  0  0  0  0
  2  7  1  0  0  0  0
  5  8  1  0  0  0  0
  8  9  1  0  0  0  0
  9 10  4  0  0  0  0
 10 11  4  0  0  0  0
 11 12  4  0  0  0  0
 12 13  4  0  0  0  0
 13 14  4  0  0  0  0
  9 14  4  0  0  0  0
  8 15  1  0  0  0  0
 15 16  4  0  0  0  0
 16 17  4  0  0  0  0
 17 18  4  0  0  0  0
 18 19  4  0  0  0  0
 19 20  4  0  0  0  0
 15 20  4  0  0  0  0
M  END

> <ChembankId>
1000807

> <SMILES>
CN1CCN(CC1)C(c2ccccc2)c3ccccc3

> <InChI>
1/C18H22N2/c1-19-12-14-20(15-13-19)18(16-8-4-2-5-9-16)17-10-6-3-7-11-17/h2-11,18H,12-15H2,1H3

$$$$
3173763
  Marvin  11101114192D          

 25 26  0  0  1  0            999 V2000
   -0.7145   -5.3625    0.0000 O   0  0  0  0  0  0  0  0  0  0  0  0
    0.0000   -4.9500    0.0000 C   0  0  2  0  0  0  0  0  0  0  0  0
    0.0000   -4.1250    0.0000 C   0  0  0  0  0  0  0  0  0  0  0  0
    0.7145   -3.7125    0.0000 C   0  0  2  0  0  0  0  0  0  0  0  0
    0.1842   -3.0805    0.0000 O   0  0  0  0  0  0  0  0  0  0  0  0
    1.4289   -4.1250    0.0000 C   0  0  0  0  0  0  0  0  0  0  0  0
    1.4289   -4.9500    0.0000 C   0  0  1  0  0  0  0  0  0  0  0  0
    2.1434   -5.3625    0.0000 O   0  0  0  0  0  0  0  0  0  0  0  0
    2.1434   -6.1875    0.0000 C   0  0  0  0  0  0  0  0  0  0  0  0
    1.4289   -6.6000    0.0000 O   0  0  0  0  0  0  0  0  0  0  0  0
    2.8579   -6.6000    0.0000 C   0  0  0  0  0  0  0  0  0  0  0  0
    3.5724   -6.1875    0.0000 C   0  0  0  0  0  0  0  0  0  0  0  0
    4.2868   -6.6000    0.0000 C   0  0  0  0  0  0  0  0  0  0  0  0
    5.0013   -6.1875    0.0000 C   0  0  0  0  0  0  0  0  0  0  0  0
    5.7158   -6.6000    0.0000 C   0  0  0  0  0  0  0  0  0  0  0  0
    5.7158   -7.4250    0.0000 C   0  0  0  0  0  0  0  0  0  0  0  0
    6.4302   -7.8375    0.0000 O   0  0  0  0  0  0  0  0  0  0  0  0
    5.0013   -7.8375    0.0000 C   0  0  0  0  0  0  0  0  0  0  0  0
    5.0013   -8.6625    0.0000 O   0  0  0  0  0  0  0  0  0  0  0  0
    4.2868   -7.4250    0.0000 C   0  0  0  0  0  0  0  0  0  0  0  0
    0.7145   -5.3625    0.0000 C   0  0  2  0  0  0  0  0  0  0  0  0
    0.7145   -6.1875    0.0000 O   0  0  0  0  0  0  0  0  0  0  0  0
    1.2448   -3.0805    0.0000 C   0  0  0  0  0  0  0  0  0  0  0  0
    0.9626   -2.3053    0.0000 O   0  0  0  0  0  0  0  0  0  0  0  0
    2.0572   -3.2238    0.0000 O   0  0  0  0  0  0  0  0  0  0  0  0
  2  1  1  6  0  0  0
  2  3  1  0  0  0  0
  3  4  1  0  0  0  0
  4  5  1  6  0  0  0
  4  6  1  0  0  0  0
  6  7  1  0  0  0  0
  7  8  1  1  0  0  0
  8  9  1  0  0  0  0
  9 10  2  0  0  0  0
  9 11  1  0  0  0  0
 11 12  2  0  0  0  0
 12 13  1  0  0  0  0
 13 14  4  0  0  0  0
 14 15  4  0  0  0  0
 15 16  4  0  0  0  0
 16 17  1  0  0  0  0
 16 18  4  0  0  0  0
 18 19  1  0  0  0  0
 18 20  4  0  0  0  0
 13 20  4  0  0  0  0
  7 21  1  0  0  0  0
  2 21  1  0  0  0  0
 21 22  1  6  0  0  0
  4 23  1  1  0  0  0
 23 24  2  0  0  0  0
 23 25  1  0  0  0  0
M  END

> <ChembankId>
3173763

> <SMILES>
O[C@@H]1C[C@](O)(C[C@@H](OC(=O)/C=C/c2ccc(O)c(O)c2)[C@@H]1O)C(=O)O

> <InChI>
1/C16H18O9/c17-9-3-1-8(5-10(9)18)2-4-13(20)25-12-7-16(24,15(22)23)6-11(19)14(12)21/h1-5,11-12,14,17-19,21,24H,6-7H2,(H,22,23)

$$$$
1001642
  Marvin  11101114192D          

 20 21  0  0  1  0            999 V2000
    0.0000   -0.0000    0.0000 O   0  0  0  0  0  0  0  0  0  0  0  0
    0.7145   -0.4125    0.0000 C   0  0  0  0  0  0  0  0  0  0  0  0
    0.7145   -1.2375    0.0000 C   0  0  1  0  0  0  0  0  0  0  0  0
    1.3819   -1.7224    0.0000 O   0  0  0  0  0  0  0  0  0  0  0  0
    1.1270   -2.5070    0.0000 C   0  0  0  0  0  0  0  0  0  0  0  0
    0.3020   -2.5070    0.0000 C   0  0  0  0  0  0  0  0  0  0  0  0
    0.0470   -1.7224    0.0000 C   0  0  2  0  0  0  0  0  0  0  0  0
   -0.7376   -1.4675    0.0000 O   0  0  0  0  0  0  0  0  0  0  0  0
    1.6119   -3.1745    0.0000 N   0  0  0  0  0  0  0  0  0  0  0  0
    2.4324   -3.0882    0.0000 C   0  0  0  0  0  0  0  0  0  0  0  0
    2.9173   -3.7557    0.0000 C   0  0  0  0  0  0  0  0  0  0  0  0
    2.5817   -4.5094    0.0000 C   0  0  0  0  0  0  0  0  0  0  0  0
    3.0667   -5.1768    0.0000 O   0  0  0  0  0  0  0  0  0  0  0  0
    1.7613   -4.5956    0.0000 N   0  0  0  0  0  0  0  0  0  0  0  0
    1.2763   -3.9282    0.0000 C   0  0  0  0  0  0  0  0  0  0  0  0
    0.4559   -4.0144    0.0000 O   0  0  0  0  0  0  0  0  0  0  0  0
    3.7378   -3.6695    0.0000 C   0  0  0  0  0  0  0  0  0  0  0  0
    4.5583   -3.5832    0.0000 F   0  0  0  0  0  0  0  0  0  0  0  0
    3.8240   -4.4899    0.0000 F   0  0  0  0  0  0  0  0  0  0  0  0
    3.6515   -2.8490    0.0000 F   0  0  0  0  0  0  0  0  0  0  0  0
  1  2  1  0  0  0  0
  3  2  1  1  0  0  0
  3  4  1  0  0  0  0
  4  5  1  0  0  0  0
  5  6  1  0  0  0  0
  6  7  1  0  0  0  0
  3  7  1  0  0  0  0
  7  8  1  6  0  0  0
  5  9  1  0  0  0  0
  9 10  4  0  0  0  0
 10 11  4  0  0  0  0
 11 12  4  0  0  0  0
 12 13  2  0  0  0  0
 12 14  4  0  0  0  0
 14 15  4  0  0  0  0
  9 15  4  0  0  0  0
 15 16  2  0  0  0  0
 11 17  1  0  0  0  0
 17 18  1  0  0  0  0
 17 19  1  0  0  0  0
 17 20  1  0  0  0  0
M  STY  1   1 DAT
M  SAL   1  1  14
M  SDT   1 MRV_IMPLICIT_H                                        
M  SDD   1     0.0000    0.0000    DR    ALL  0       0  
M  SED   1 IMPL_H1
M  END

> <ChembankId>
1001642

> <SMILES>
OC[C@H]1OC(C[C@@H]1O)n2cc(c(=O)[nH]c2=O)C(F)(F)F

> <InChI>
1/C10H11F3N2O5/c11-10(12,13)4-2-15(9(19)14-8(4)18)7-1-5(17)6(3-16)20-7/h2,5-7,16-17H,1,3H2,(H,14,18,19)

$$$$
1732672
  Marvin  11101114192D          

 21 24  0  0  0  0            999 V2000
    4.2575   -0.8137    0.0000 C   0  0  0  0  0  0  0  0  0  0  0  0
    3.7054   -0.2006    0.0000 N   0  0  0  0  0  0  0  0  0  0  0  0
    3.9604    0.5840    0.0000 C   0  0  0  0  0  0  0  0  0  0  0  0
    3.4084    1.1971    0.0000 C   0  0  0  0  0  0  0  0  0  0  0  0
    2.6014    1.0256    0.0000 C   0  0  0  0  0  0  0  0  0  0  0  0
    2.3464    0.2410    0.0000 C   0  0  0  0  0  0  0  0  0  0  0  0
    2.8985   -0.3721    0.0000 C   0  0  0  0  0  0  0  0  0  0  0  0
    1.5214    0.2410    0.0000 C   0  0  0  0  0  0  0  0  0  0  0  0
    0.9694   -0.3721    0.0000 C   0  0  0  0  0  0  0  0  0  0  0  0
    0.1624   -0.2006    0.0000 C   0  0  0  0  0  0  0  0  0  0  0  0
   -0.0925    0.5840    0.0000 C   0  0  0  0  0  0  0  0  0  0  0  0
    0.4595    1.1971    0.0000 C   0  0  0  0  0  0  0  0  0  0  0  0
    1.2665    1.0256    0.0000 C   0  0  0  0  0  0  0  0  0  0  0  0
    1.9339    1.5105    0.0000 N   0  0  0  0  0  0  0  0  0  0  0  0
    1.9339    2.3355    0.0000 C   0  0  0  0  0  0  0  0  0  0  0  0
    2.6484    2.7480    0.0000 C   0  0  0  0  0  0  0  0  0  0  0  0
    2.6484    3.5730    0.0000 C   0  0  0  0  0  0  0  0  0  0  0  0
    3.3629    3.9855    0.0000 C   0  0  0  0  0  0  0  0  0  0  0  0
    4.0774    3.5730    0.0000 C   0  0  0  0  0  0  0  0  0  0  0  0
    4.0774    2.7480    0.0000 C   0  0  0  0  0  0  0  0  0  0  0  0
    3.3629    2.3355    0.0000 C   0  0  0  0  0  0  0  0  0  0  0  0
  1  2  1  0  0  0  0
  2  3  1  0  0  0  0
  3  4  1  0  0  0  0
  4  5  1  0  0  0  0
  5  6  4  0  0  0  0
  6  7  1  0  0  0  0
  2  7  1  0  0  0  0
  6  8  4  0  0  0  0
  8  9  4  0  0  0  0
  9 10  4  0  0  0  0
 10 11  4  0  0  0  0
 11 12  4  0  0  0  0
 12 13  4  0  0  0  0
  8 13  4  0  0  0  0
 13 14  4  0  0  0  0
  5 14  4  0  0  0  0
 14 15  1  0  0  0  0
 15 16  1  0  0  0  0
 16 17  4  0  0  0  0
 17 18  4  0  0  0  0
 18 19  4  0  0  0  0
 19 20  4  0  0  0  0
 20 21  4  0  0  0  0
 16 21  4  0  0  0  0
M  END

> <ChembankId>
1732672

> <SMILES>
CN1CCc2c(C1)c3ccccc3n2Cc4ccccc4

> <InChI>
1/C19H20N2/c1-20-12-11-19-17(14-20)16-9-5-6-10-18(16)21(19)13-15-7-3-2-4-8-15/h2-10H,11-14H2,1H3

$$$$
468
  Marvin  11101114192D          

 19 19  0  0  0  0            999 V2000
   -5.0013   -5.3625    0.0000 O   0  0  0  0  0  0  0  0  0  0  0  0
   -4.2868   -5.7750    0.0000 N   0  0  0  0  0  0  0  0  0  0  0  0
   -3.5724   -5.3625    0.0000 C   0  0  0  0  0  0  0  0  0  0  0  0
   -3.5724   -4.5375    0.0000 O   0  0  0  0  0  0  0  0  0  0  0  0
   -2.8579   -5.7750    0.0000 C   0  0  0  0  0  0  0  0  0  0  0  0
   -2.1434   -5.3625    0.0000 C   0  0  0  0  0  0  0  0  0  0  0  0
   -1.4289   -5.7750    0.0000 C   0  0  0  0  0  0  0  0  0  0  0  0
   -0.7145   -5.3625    0.0000 C   0  0  0  0  0  0  0  0  0  0  0  0
    0.0000   -5.7750    0.0000 C   0  0  0  0  0  0  0  0  0  0  0  0
    0.7145   -5.3625    0.0000 C   0  0  0  0  0  0  0  0  0  0  0  0
    1.4289   -5.7750    0.0000 C   0  0  0  0  0  0  0  0  0  0  0  0
    1.4289   -6.6000    0.0000 O   0  0  0  0  0  0  0  0  0  0  0  0
    2.1434   -5.3625    0.0000 N   0  0  0  0  0  0  0  0  0  0  0  0
    2.8579   -5.7750    0.0000 C   0  0  0  0  0  0  0  0  0  0  0  0
    3.5724   -5.3625    0.0000 C   0  0  0  0  0  0  0  0  0  0  0  0
    4.2868   -5.7750    0.0000 C   0  0  0  0  0  0  0  0  0  0  0  0
    4.2868   -6.6000    0.0000 C   0  0  0  0  0  0  0  0  0  0  0  0
    3.5724   -7.0125    0.0000 C   0  0  0  0  0  0  0  0  0  0  0  0
    2.8579   -6.6000    0.0000 C   0  0  0  0  0  0  0  0  0  0  0  0
  1  2  1  0  0  0  0
  2  3  1  0  0  0  0
  3  4  2  0  0  0  0
  3  5  1  0  0  0  0
  5  6  1  0  0  0  0
  6  7  1  0  0  0  0
  7  8  1  0  0  0  0
  8  9  1  0  0  0  0
  9 10  1  0  0  0  0
 10 11  1  0  0  0  0
 11 12  2  0  0  0  0
 11 13  1  0  0  0  0
 13 14  1  0  0  0  0
 14 15  4  0  0  0  0
 15 16  4  0  0  0  0
 16 17  4  0  0  0  0
 17 18  4  0  0  0  0
 18 19  4  0  0  0  0
 14 19  4  0  0  0  0
M  END

> <ChembankId>
468

> <SMILES>
ONC(=O)CCCCCCC(=O)Nc1ccccc1

> <InChI>
1/C14H20N2O3/c17-13(15-12-8-4-3-5-9-12)10-6-1-2-7-11-14(18)16-19/h3-5,8-9,19H,1-2,6-7,10-11H2,(H,15,17)(H,16,18)

$$$$
503
  Marvin  11101114192D          

 31 33  0  0  1  0            999 V2000
   -0.0000   -1.6500    0.0000 C   0  0  0  0  0  0  0  0  0  0  0  0
    0.7145   -1.2375    0.0000 C   0  0  2  0  0  0  0  0  0  0  0  0
    0.7145   -0.4125    0.0000 N   0  0  0  0  0  0  0  0  0  0  0  0
    0.0000   -0.0000    0.0000 C   0  0  0  0  0  0  0  0  0  0  0  0
   -0.7145   -0.4125    0.0000 O   0  0  0  0  0  0  0  0  0  0  0  0
    0.0000    0.8250    0.0000 C   0  0  0  0  0  0  0  0  0  0  0  0
   -0.6131    1.3770    0.0000 C   0  0  0  0  0  0  0  0  0  0  0  0
   -0.2775    2.1307    0.0000 C   0  0  0  0  0  0  0  0  0  0  0  0
    0.5429    2.0445    0.0000 C   0  0  0  0  0  0  0  0  0  0  0  0
    0.7145    1.2375    0.0000 N   0  0  0  0  0  0  0  0  0  0  0  0
    1.4289    0.8250    0.0000 C   0  0  0  0  0  0  0  0  0  0  0  0
    1.4289   -0.0000    0.0000 O   0  0  0  0  0  0  0  0  0  0  0  0
    2.1434    1.2375    0.0000 C   0  0  2  0  0  0  0  0  0  0  0  0
    2.1434    2.0625    0.0000 C   0  0  0  0  0  0  0  0  0  0  0  0
    2.8579    2.4750    0.0000 C   0  0  0  0  0  0  0  0  0  0  0  0
    3.5724    2.0625    0.0000 C   0  0  0  0  0  0  0  0  0  0  0  0
    4.2868    2.4750    0.0000 C   0  0  0  0  0  0  0  0  0  0  0  0
    5.0013    2.0625    0.0000 C   0  0  0  0  0  0  0  0  0  0  0  0
    5.7158    2.4750    0.0000 C   0  0  0  0  0  0  0  0  0  0  0  0
    5.7158    3.3000    0.0000 O   0  0  0  0  0  0  0  0  0  0  0  0
    6.4302    2.0625    0.0000 C   0  0  0  0  0  0  0  0  0  0  0  0
    7.2552    2.0625    0.0000 C   0  0  0  0  0  0  0  0  0  0  0  0
    6.8427    1.3480    0.0000 O   0  0  0  0  0  0  0  0  0  0  0  0
    2.8579    0.8250    0.0000 N   0  0  0  0  0  0  0  0  0  0  0  0
    2.8579   -0.0000    0.0000 C   0  0  0  0  0  0  0  0  0  0  0  0
    3.5724   -0.4125    0.0000 O   0  0  0  0  0  0  0  0  0  0  0  0
    2.1434   -0.4125    0.0000 C   0  0  0  0  0  0  0  0  0  0  0  0
    1.3229   -0.4987    0.0000 C   0  0  0  0  0  0  0  0  0  0  0  0
    2.1434   -1.2375    0.0000 N   0  0  0  0  0  0  0  0  0  0  0  0
    1.4289   -1.6500    0.0000 C   0  0  0  0  0  0  0  0  0  0  0  0
    1.4289   -2.4750    0.0000 O   0  0  0  0  0  0  0  0  0  0  0  0
  2  1  1  6  0  0  0
  2  3  1  0  0  0  0
  3  4  1  0  0  0  0
  4  5  2  0  0  0  0
  4  6  1  0  0  0  0
  6  7  1  0  0  0  0
  7  8  1  0  0  0  0
  8  9  1  0  0  0  0
  9 10  1  0  0  0  0
  6 10  1  0  0  0  0
 10 11  1  0  0  0  0
 11 12  2  0  0  0  0
 11 13  1  0  0  0  0
 13 14  1  6  0  0  0
 14 15  1  0  0  0  0
 15 16  1  0  0  0  0
 16 17  1  0  0  0  0
 17 18  1  0  0  0  0
 18 19  1  0  0  0  0
 19 20  2  0  0  0  0
 19 21  1  0  0  0  0
 21 22  1  0  0  0  0
 22 23  1  0  0  0  0
 21 23  1  0  0  0  0
 13 24  1  0  0  0  0
 24 25  1  0  0  0  0
 25 26  2  0  0  0  0
 25 27  1  0  0  0  0
 27 28  1  0  0  0  0
 27 29  1  0  0  0  0
 29 30  1  0  0  0  0
  2 30  1  0  0  0  0
 30 31  2  0  0  0  0
M  END

> <ChembankId>
503

> <SMILES>
C[C@@H]1NC(=O)C2CCCN2C(=O)[C@H](CCCCCC(=O)C3CO3)NC(=O)C(C)NC1=O

> <InChI>
1/C21H32N4O6/c1-12-18(27)22-13(2)19(28)24-14(7-4-3-5-9-16(26)17-11-31-17)21(30)25-10-6-8-15(25)20(29)23-12/h12-15,17H,3-11H2,1-2H3,(H,22,27)(H,23,29)(H,24,28)/t12-,13-,14+,15+,17-/m0/s1

$$$$
526
  Marvin  11101114192D          

 15 16  0  0  1  0            999 V2000
    3.9678    1.4118    0.0000 C   0  0  0  0  0  0  0  0  0  0  0  0
    3.2533    0.9993    0.0000 C   0  0  1  0  0  0  0  0  0  0  0  0
    2.5388    1.4118    0.0000 O   0  0  0  0  0  0  0  0  0  0  0  0
    3.2533    0.1743    0.0000 C   0  0  2  0  0  0  0  0  0  0  0  0
    3.6658   -0.5401    0.0000 O   0  0  0  0  0  0  0  0  0  0  0  0
    2.8408   -0.5401    0.0000 C   0  0  1  0  0  0  0  0  0  0  0  0
    2.1263   -0.9526    0.0000 C   0  0  0  0  0  0  0  0  0  0  0  0
    1.4118   -0.5401    0.0000 C   0  0  0  0  0  0  0  0  0  0  0  0
    0.6974   -0.9526    0.0000 C   0  0  2  0  0  0  0  0  0  0  0  0
    0.2849   -1.6671    0.0000 O   0  0  0  0  0  0  0  0  0  0  0  0
   -0.1276   -0.9526    0.0000 C   0  0  0  0  0  0  0  0  0  0  0  0
   -0.8421   -0.5401    0.0000 C   0  0  2  0  0  0  0  0  0  0  0  0
   -1.5566   -0.9526    0.0000 O   0  0  0  0  0  0  0  0  0  0  0  0
   -0.8421    0.2849    0.0000 C   0  0  0  0  0  0  0  0  0  0  0  0
   -1.5566    0.6974    0.0000 C   0  0  0  0  0  0  0  0  0  0  0  0
  1  2  1  0  0  0  0
  2  3  1  6  0  0  0
  4  2  1  6  0  0  0
  4  5  1  0  0  0  0
  5  6  1  0  0  0  0
  4  6  1  0  0  0  0
  6  7  1  1  0  0  0
  7  8  2  0  0  0  0
  9  8  1  6  0  0  0
  9 10  1  0  0  0  0
 10 11  1  0  0  0  0
  9 11  1  0  0  0  0
 11 12  1  0  0  0  0
 12 13  1  6  0  0  0
 12 14  1  0  0  0  0
 14 15  2  0  0  0  0
M  END

> <ChembankId>
526

> <SMILES>
C[C@@H](O)[C@@H]1O[C@H]1/C=C/[C@@H]2O[C@H]2[C@H](O)C=C

> <InChI>
1/C11H16O4/c1-3-7(13)11-9(15-11)5-4-8-10(14-8)6(2)12/h3-13H,1H2,2H3/b5-4+/t6-,7-,8+,9+,10+,11+/m1/s1

$$$$
585
  Marvin  11101114192D          

 20 21  0  0  0  0            999 V2000
    2.8579   -1.6500    0.0000 O   0  0  0  0  0  0  0  0  0  0  0  0
    2.8579   -2.4750    0.0000 C   0  0  0  0  0  0  0  0  0  0  0  0
    3.5724   -2.8875    0.0000 C   0  0  0  0  0  0  0  0  0  0  0  0
    3.5724   -3.7125    0.0000 C   0  0  0  0  0  0  0  0  0  0  0  0
    2.8579   -4.1250    0.0000 C   0  0  0  0  0  0  0  0  0  0  0  0
    2.8579   -4.9500    0.0000 C   0  0  0  0  0  0  0  0  0  0  0  0
    3.5724   -5.3625    0.0000 O   0  0  0  0  0  0  0  0  0  0  0  0
    2.1434   -5.3625    0.0000 C   0  0  0  0  0  0  0  0  0  0  0  0
    2.1434   -6.1875    0.0000 C   0  0  0  0  0  0  0  0  0  0  0  0
    1.4289   -6.6000    0.0000 C   0  0  0  0  0  0  0  0  0  0  0  0
    1.4289   -7.4250    0.0000 C   0  0  0  0  0  0  0  0  0  0  0  0
    0.7145   -7.8375    0.0000 C   0  0  0  0  0  0  0  0  0  0  0  0
   -0.0000   -7.4250    0.0000 C   0  0  0  0  0  0  0  0  0  0  0  0
   -0.7145   -7.8375    0.0000 O   0  0  0  0  0  0  0  0  0  0  0  0
   -0.0000   -6.6000    0.0000 C   0  0  0  0  0  0  0  0  0  0  0  0
   -0.7145   -6.1875    0.0000 O   0  0  0  0  0  0  0  0  0  0  0  0
    0.7145   -6.1875    0.0000 C   0  0  0  0  0  0  0  0  0  0  0  0
    2.1434   -3.7125    0.0000 C   0  0  0  0  0  0  0  0  0  0  0  0
    1.4289   -4.1250    0.0000 O   0  0  0  0  0  0  0  0  0  0  0  0
    2.1434   -2.8875    0.0000 C   0  0  0  0  0  0  0  0  0  0  0  0
  1  2  1  0  0  0  0
  2  3  4  0  0  0  0
  3  4  4  0  0  0  0
  4  5  4  0  0  0  0
  5  6  1  0  0  0  0
  6  7  2  0  0  0  0
  6  8  1  0  0  0  0
  8  9  2  0  0  0  0
  9 10  1  0  0  0  0
 10 11  4  0  0  0  0
 11 12  4  0  0  0  0
 12 13  4  0  0  0  0
 13 14  1  0  0  0  0
 13 15  4  0  0  0  0
 15 16  1  0  0  0  0
 15 17  4  0  0  0  0
 10 17  4  0  0  0  0
  5 18  4  0  0  0  0
 18 19  1  0  0  0  0
 18 20  4  0  0  0  0
  2 20  4  0  0  0  0
M  END

> <ChembankId>
585

> <SMILES>
Oc1ccc(C(=O)/C=C/c2ccc(O)c(O)c2)c(O)c1

> <InChI>
1/C15H12O5/c16-10-3-4-11(14(19)8-10)12(17)5-1-9-2-6-13(18)15(20)7-9/h1-8,16,18-20H/b5-1+

$$$$
1979
  Marvin  11101114192D          

 40 44  0  0  0  0            999 V2000
    1.5356    2.2902    0.0000 Cl  0  0  0  0  0  0  0  0  0  0  0  0
    0.8212    1.8777    0.0000 C   0  0  0  0  0  0  0  0  0  0  0  0
    0.8212    1.0527    0.0000 C   0  0  0  0  0  0  0  0  0  0  0  0
    0.1067    0.6402    0.0000 C   0  0  0  0  0  0  0  0  0  0  0  0
   -0.6078    1.0527    0.0000 C   0  0  0  0  0  0  0  0  0  0  0  0
   -0.6078    1.8777    0.0000 C   0  0  0  0  0  0  0  0  0  0  0  0
    0.1067    2.2902    0.0000 C   0  0  0  0  0  0  0  0  0  0  0  0
   -1.3222    0.6402    0.0000 C   0  0  0  0  0  0  0  0  0  0  0  0
   -2.0367    1.0527    0.0000 C   0  0  0  0  0  0  0  0  0  0  0  0
   -2.7512    0.6402    0.0000 C   0  0  0  0  0  0  0  0  0  0  0  0
   -3.4656    1.0527    0.0000 C   0  0  0  0  0  0  0  0  0  0  0  0
   -3.4656    1.8777    0.0000 C   0  0  0  0  0  0  0  0  0  0  0  0
   -4.1801    2.2902    0.0000 Cl  0  0  0  0  0  0  0  0  0  0  0  0
   -2.7512    2.2902    0.0000 C   0  0  0  0  0  0  0  0  0  0  0  0
   -2.0367    1.8777    0.0000 C   0  0  0  0  0  0  0  0  0  0  0  0
   -1.3222   -0.1848    0.0000 N   0  3  0  0  0  0  0  0  0  0  0  0
   -0.6548   -0.6697    0.0000 C   0  0  0  0  0  0  0  0  0  0  0  0
   -0.9097   -1.4544    0.0000 C   0  0  0  0  0  0  0  0  0  0  0  0
   -1.7347   -1.4544    0.0000 N   0  0  0  0  0  0  0  0  0  0  0  0
   -2.2197   -2.1218    0.0000 C   0  0  0  0  0  0  0  0  0  0  0  0
   -1.8841   -2.8755    0.0000 C   0  0  0  0  0  0  0  0  0  0  0  0
   -2.3690   -3.5429    0.0000 O   0  0  0  0  0  0  0  0  0  0  0  0
   -2.0335   -4.2966    0.0000 C   0  0  0  0  0  0  0  0  0  0  0  0
   -2.5184   -4.9640    0.0000 C   0  0  0  0  0  0  0  0  0  0  0  0
   -2.1828   -5.7177    0.0000 C   0  0  0  0  0  0  0  0  0  0  0  0
   -2.6678   -6.3851    0.0000 C   0  0  0  0  0  0  0  0  0  0  0  0
   -3.4882   -6.2989    0.0000 C   0  0  0  0  0  0  0  0  0  0  0  0
   -3.9732   -6.9663    0.0000 Cl  0  0  0  0  0  0  0  0  0  0  0  0
   -3.8238   -5.5452    0.0000 C   0  0  0  0  0  0  0  0  0  0  0  0
   -3.3389   -4.8778    0.0000 C   0  0  0  0  0  0  0  0  0  0  0  0
   -3.6744   -4.1241    0.0000 Cl  0  0  0  0  0  0  0  0  0  0  0  0
   -1.0636   -2.9617    0.0000 C   0  0  0  0  0  0  0  0  0  0  0  0
   -0.5787   -2.2943    0.0000 C   0  0  0  0  0  0  0  0  0  0  0  0
    0.2418   -2.3805    0.0000 C   0  0  0  0  0  0  0  0  0  0  0  0
    0.5773   -3.1342    0.0000 C   0  0  0  0  0  0  0  0  0  0  0  0
    1.3978   -3.2204    0.0000 Cl  0  0  0  0  0  0  0  0  0  0  0  0
    0.0924   -3.8016    0.0000 C   0  0  0  0  0  0  0  0  0  0  0  0
   -0.7281   -3.7154    0.0000 C   0  0  0  0  0  0  0  0  0  0  0  0
   -1.2130   -4.3828    0.0000 Cl  0  0  0  0  0  0  0  0  0  0  0  0
   -1.9897   -0.6697    0.0000 C   0  0  0  0  0  0  0  0  0  0  0  0
  1  2  1  0  0  0  0
  2  3  4  0  0  0  0
  3  4  4  0  0  0  0
  4  5  4  0  0  0  0
  5  6  4  0  0  0  0
  6  7  4  0  0  0  0
  2  7  4  0  0  0  0
  5  8  1  0  0  0  0
  8  9  1  0  0  0  0
  9 10  4  0  0  0  0
 10 11  4  0  0  0  0
 11 12  4  0  0  0  0
 12 13  1  0  0  0  0
 12 14  4  0  0  0  0
 14 15  4  0  0  0  0
  9 15  4  0  0  0  0
  8 16  1  0  0  0  0
 16 17  4  0  0  0  0
 17 18  4  0  0  0  0
 18 19  4  0  0  0  0
 19 20  1  0  0  0  0
 20 21  1  0  0  0  0
 21 22  1  0  0  0  0
 22 23  1  0  0  0  0
 23 24  1  0  0  0  0
 24 25  4  0  0  0  0
 25 26  4  0  0  0  0
 26 27  4  0  0  0  0
 27 28  1  0  0  0  0
 27 29  4  0  0  0  0
 29 30  4  0  0  0  0
 24 30  4  0  0  0  0
 30 31  1  0  0  0  0
 21 32  1  0  0  0  0
 32 33  4  0  0  0  0
 33 34  4  0  0  0  0
 34 35  4  0  0  0  0
 35 36  1  0  0  0  0
 35 37  4  0  0  0  0
 37 38  4  0  0  0  0
 32 38  4  0  0  0  0
 38 39  1  0  0  0  0
 19 40  4  0  0  0  0
 16 40  4  0  0  0  0
M  CHG  1  16   1
M  END

> <ChembankId>
1979

> <SMILES>
Clc1ccc(cc1)C(c2ccc(Cl)cc2)[n+]3ccn(CC(OCc4ccc(Cl)cc4Cl)c5ccc(Cl)cc5Cl)c3

> <InChI>
1/C31H23Cl6N2O/c32-23-6-1-20(2-7-23)31(21-3-8-24(33)9-4-21)39-14-13-38(19-39)17-30(27-12-11-26(35)16-29(27)37)40-18-22-5-10-25(34)15-28(22)36/h1-16,19,30-31H,17-18H2/q+1

$$$$
907101
  Marvin  11101114192D          

 20 21  0  0  0  0            999 V2000
    4.2868   -1.6500    0.0000 N   0  0  0  0  0  0  0  0  0  0  0  0
    5.0013   -1.2375    0.0000 C   0  0  0  0  0  0  0  0  0  0  0  0
    5.7158   -1.6500    0.0000 C   0  0  0  0  0  0  0  0  0  0  0  0
    6.4302   -1.2375    0.0000 C   0  0  0  0  0  0  0  0  0  0  0  0
    7.1447   -1.6500    0.0000 C   0  0  0  0  0  0  0  0  0  0  0  0
    7.8592   -1.2375    0.0000 N   0  0  0  0  0  0  0  0  0  0  0  0
    8.5737   -1.6500    0.0000 S   0  0  0  0  0  0  0  0  0  0  0  0
    8.1612   -2.3645    0.0000 O   0  0  0  0  0  0  0  0  0  0  0  0
    8.9862   -0.9355    0.0000 O   0  0  0  0  0  0  0  0  0  0  0  0
    9.2881   -2.0625    0.0000 C   0  0  0  0  0  0  0  0  0  0  0  0
   10.0026   -1.6500    0.0000 C   0  0  0  0  0  0  0  0  0  0  0  0
   10.7171   -2.0625    0.0000 C   0  0  0  0  0  0  0  0  0  0  0  0
   10.7171   -2.8875    0.0000 C   0  0  0  0  0  0  0  0  0  0  0  0
   11.4315   -3.3000    0.0000 C   0  0  0  0  0  0  0  0  0  0  0  0
   12.1460   -2.8875    0.0000 Cl  0  0  0  0  0  0  0  0  0  0  0  0
   11.4315   -4.1250    0.0000 C   0  0  0  0  0  0  0  0  0  0  0  0
   10.7171   -4.5375    0.0000 C   0  0  0  0  0  0  0  0  0  0  0  0
   10.0026   -4.1250    0.0000 C   0  0  0  0  0  0  0  0  0  0  0  0
   10.0026   -3.3000    0.0000 C   0  0  0  0  0  0  0  0  0  0  0  0
    9.2881   -2.8875    0.0000 C   0  0  0  0  0  0  0  0  0  0  0  0
  1  2  1  0  0  0  0
  2  3  1  0  0  0  0
  3  4  1  0  0  0  0
  4  5  1  0  0  0  0
  5  6  1  0  0  0  0
  6  7  1  0  0  0  0
  7  8  2  0  0  0  0
  7  9  2  0  0  0  0
  7 10  1  0  0  0  0
 10 11  4  0  0  0  0
 11 12  4  0  0  0  0
 12 13  4  0  0  0  0
 13 14  4  0  0  0  0
 14 15  1  0  0  0  0
 14 16  4  0  0  0  0
 16 17  4  0  0  0  0
 17 18  4  0  0  0  0
 18 19  4  0  0  0  0
 13 19  4  0  0  0  0
 19 20  4  0  0  0  0
 10 20  4  0  0  0  0
M  END

> <ChembankId>
907101

> <SMILES>
NCCCCNS(=O)(=O)c1ccc2c(Cl)cccc2c1

> <InChI>
1/C14H17ClN2O2S/c15-14-5-3-4-11-10-12(6-7-13(11)14)20(18,19)17-9-2-1-8-16/h3-7,10,17H,1-2,8-9,16H2

$$$$
3055065
  Marvin  11101114192D          

 16 17  0  0  1  0            999 V2000
    0.7145    6.7661    0.0000 N   0  0  0  0  0  0  0  0  0  0  0  0
    0.7145    5.9411    0.0000 C   0  0  0  0  0  0  0  0  0  0  0  0
    1.4289    5.5286    0.0000 N   0  0  0  0  0  0  0  0  0  0  0  0
    1.4289    4.7036    0.0000 C   0  0  0  0  0  0  0  0  0  0  0  0
    0.7145    4.2911    0.0000 N   0  0  0  0  0  0  0  0  0  0  0  0
    0.7145    3.4661    0.0000 C   0  0  2  0  0  0  0  0  0  0  0  0
    1.3819    2.9812    0.0000 C   0  0  0  0  0  0  0  0  0  0  0  0
    1.1270    2.1965    0.0000 C   0  0  2  0  0  0  0  0  0  0  0  0
    1.6119    1.5291    0.0000 O   0  0  0  0  0  0  0  0  0  0  0  0
    0.3020    2.1965    0.0000 C   0  0  1  0  0  0  0  0  0  0  0  0
   -0.1830    1.5291    0.0000 C   0  0  0  0  0  0  0  0  0  0  0  0
    0.1526    0.7754    0.0000 O   0  0  0  0  0  0  0  0  0  0  0  0
    0.0470    2.9812    0.0000 O   0  0  0  0  0  0  0  0  0  0  0  0
    0.0000    4.7036    0.0000 C   0  0  0  0  0  0  0  0  0  0  0  0
   -0.7145    4.2911    0.0000 O   0  0  0  0  0  0  0  0  0  0  0  0
   -0.0000    5.5286    0.0000 N   0  0  0  0  0  0  0  0  0  0  0  0
  1  2  1  0  0  0  0
  2  3  4  0  0  0  0
  3  4  4  0  0  0  0
  4  5  4  0  0  0  0
  6  5  1  6  0  0  0
  6  7  1  0  0  0  0
  7  8  1  0  0  0  0
  8  9  1  6  0  0  0
  8 10  1  0  0  0  0
 10 11  1  1  0  0  0
 11 12  1  0  0  0  0
 10 13  1  0  0  0  0
  6 13  1  0  0  0  0
  5 14  4  0  0  0  0
 14 15  2  0  0  0  0
 14 16  4  0  0  0  0
  2 16  4  0  0  0  0
M  END

> <ChembankId>
3055065

> <SMILES>
Nc1ncn([C@@H]2C[C@H](O)[C@@H](CO)O2)c(=O)n1

> <InChI>
1/C8H12N4O4/c9-7-10-3-12(8(15)11-7)6-1-4(14)5(2-13)16-6/h3-6,13-14H,1-2H2,(H2,9,11,15)/t4-,5+,6+/m1/s1

$$$$
3054850
  Marvin  11101114192D          

 25 28  0  0  1  0            999 V2000
    3.5330   -3.2587    0.0000 C   0  0  0  0  0  0  0  0  0  0  0  0
    3.8928   -2.5163    0.0000 C   0  0  2  0  0  0  0  0  0  0  0  0
    4.4247   -3.1470    0.0000 C   0  0  0  0  0  0  0  0  0  0  0  0
    5.2368   -3.0018    0.0000 C   0  0  2  0  0  0  0  0  0  0  0  0
    5.7686   -3.6325    0.0000 O   0  0  0  0  0  0  0  0  0  0  0  0
    5.5171   -2.2259    0.0000 C   0  0  0  0  0  0  0  0  0  0  0  0
    4.9853   -1.5952    0.0000 C   0  0  1  0  0  0  0  0  0  0  0  0
    5.2655   -0.8192    0.0000 C   0  0  0  0  0  0  0  0  0  0  0  0
    6.0777   -0.6740    0.0000 C   0  0  0  0  0  0  0  0  0  0  0  0
    6.6095   -1.3047    0.0000 C   0  0  0  0  0  0  0  0  0  0  0  0
    7.4216   -1.1595    0.0000 C   0  0  0  0  0  0  0  0  0  0  0  0
    7.9534   -1.7902    0.0000 C   0  0  0  0  0  0  0  0  0  0  0  0
    8.7655   -1.6450    0.0000 O   0  0  0  0  0  0  0  0  0  0  0  0
    7.6731   -2.5662    0.0000 C   0  0  0  0  0  0  0  0  0  0  0  0
    6.8610   -2.7114    0.0000 C   0  0  0  0  0  0  0  0  0  0  0  0
    6.3292   -2.0807    0.0000 C   0  0  2  0  0  0  0  0  0  0  0  0
    6.0489   -2.8566    0.0000 C   0  0  0  0  0  0  0  0  0  0  0  0
    4.1731   -1.7404    0.0000 C   0  0  2  0  0  0  0  0  0  0  0  0
    3.5218   -1.2340    0.0000 C   0  0  0  0  0  0  0  0  0  0  0  0
    2.8390   -1.6970    0.0000 C   0  0  0  0  0  0  0  0  0  0  0  0
    3.0683   -2.4895    0.0000 C   0  0  2  0  0  0  0  0  0  0  0  0
    2.5619   -3.1408    0.0000 C   0  0  0  0  0  0  0  0  0  0  0  0
    2.8728   -3.9050    0.0000 O   0  0  0  0  0  0  0  0  0  0  0  0
    1.7447   -3.0280    0.0000 C   0  0  0  0  0  0  0  0  0  0  0  0
    1.2383   -3.6793    0.0000 O   0  0  0  0  0  0  0  0  0  0  0  0
  2  1  1  1  0  0  0
  2  3  1  0  0  0  0
  3  4  1  0  0  0  0
  4  5  1  1  0  0  0
  4  6  1  0  0  0  0
  6  7  1  0  0  0  0
  7  8  1  6  0  0  0
  8  9  1  0  0  0  0
  9 10  1  0  0  0  0
 10 11  2  0  0  0  0
 11 12  1  0  0  0  0
 12 13  2  0  0  0  0
 12 14  1  0  0  0  0
 14 15  1  0  0  0  0
 15 16  1  0  0  0  0
  6 16  1  0  0  0  0
 10 16  1  0  0  0  0
 16 17  1  1  0  0  0
  7 18  1  0  0  0  0
  2 18  1  0  0  0  0
 18 19  1  1  0  0  0
 19 20  1  0  0  0  0
 20 21  1  0  0  0  0
  2 21  1  0  0  0  0
 21 22  1  1  0  0  0
 22 23  2  0  0  0  0
 22 24  1  0  0  0  0
 24 25  1  0  0  0  0
M  END

> <ChembankId>
3054850

> <SMILES>
C[C@@]12C[C@H](O)[C@H]3[C@@H](CCC4=CC(=O)CC[C@]34C)[C@@H]2CC[C@@H]1C(=O)CO

> <InChI>
1/C21H30O4/c1-20-8-7-13(23)9-12(20)3-4-14-15-5-6-16(18(25)11-22)21(15,2)10-17(24)19(14)20/h9,14-17,19,22,24H,3-8,10-11H2,1-2H3

$$$$
2301
  Marvin  11101114192D          

 15 17  0  0  0  0            999 V2000
    4.8395    0.4125    0.0000 O   0  0  0  0  0  0  0  0  0  0  0  0
    4.0145    0.4125    0.0000 C   0  0  0  0  0  0  0  0  0  0  0  0
    3.6020    1.1270    0.0000 C   0  0  0  0  0  0  0  0  0  0  0  0
    2.7770    1.1270    0.0000 C   0  0  0  0  0  0  0  0  0  0  0  0
    2.3645    0.4125    0.0000 C   0  0  0  0  0  0  0  0  0  0  0  0
    2.7770   -0.3020    0.0000 C   0  0  0  0  0  0  0  0  0  0  0  0
    3.6020   -0.3020    0.0000 O   0  0  0  0  0  0  0  0  0  0  0  0
    2.3645   -1.0164    0.0000 C   0  0  0  0  0  0  0  0  0  0  0  0
    1.5395   -1.0164    0.0000 C   0  0  0  0  0  0  0  0  0  0  0  0
    1.1270   -0.3020    0.0000 C   0  0  0  0  0  0  0  0  0  0  0  0
    0.3020   -0.3020    0.0000 C   0  0  0  0  0  0  0  0  0  0  0  0
   -0.1105    0.4125    0.0000 C   0  0  0  0  0  0  0  0  0  0  0  0
    0.3020    1.1270    0.0000 C   0  0  0  0  0  0  0  0  0  0  0  0
    1.1270    1.1270    0.0000 C   0  0  0  0  0  0  0  0  0  0  0  0
    1.5395    0.4125    0.0000 C   0  0  0  0  0  0  0  0  0  0  0  0
  1  2  2  0  0  0  0
  2  3  1  0  0  0  0
  3  4  1  0  0  0  0
  4  5  1  0  0  0  0
  5  6  4  0  0  0  0
  6  7  1  0  0  0  0
  2  7  1  0  0  0  0
  6  8  4  0  0  0  0
  8  9  4  0  0  0  0
  9 10  4  0  0  0  0
 10 11  4  0  0  0  0
 11 12  4  0  0  0  0
 12 13  4  0  0  0  0
 13 14  4  0  0  0  0
 14 15  4  0  0  0  0
  5 15  4  0  0  0  0
 10 15  4  0  0  0  0
M  END

> <ChembankId>
2301

> <SMILES>
O=C1CCc2c(O1)ccc3ccccc23

> <InChI>
1/C13H10O2/c14-13-8-6-11-10-4-2-1-3-9(10)5-7-12(11)15-13/h1-5,7H,6,8H2

$$$$
2069232
  Marvin  11101114192D          

 38 40  0  0  1  0            999 V2000
   -4.2868   -0.8250    0.0000 N   0  0  0  0  0  0  0  0  0  0  0  0
   -3.5724   -0.4125    0.0000 C   0  0  0  0  0  0  0  0  0  0  0  0
   -2.8579   -0.8250    0.0000 C   0  0  0  0  0  0  0  0  0  0  0  0
   -2.1434   -0.4125    0.0000 C   0  0  0  0  0  0  0  0  0  0  0  0
   -2.1434    0.4125    0.0000 O   0  0  0  0  0  0  0  0  0  0  0  0
   -1.4289   -0.8250    0.0000 C   0  0  0  0  0  0  0  0  0  0  0  0
   -1.4289   -1.6500    0.0000 O   0  0  0  0  0  0  0  0  0  0  0  0
   -0.7145   -0.4125    0.0000 N   0  0  0  0  0  0  0  0  0  0  0  0
   -0.7145    0.4125    0.0000 C   0  0  2  0  0  0  0  0  0  0  0  0
   -1.4289    0.8250    0.0000 C   0  0  0  0  0  0  0  0  0  0  0  0
   -1.4289    1.6500    0.0000 C   0  0  2  0  0  0  0  0  0  0  0  0
   -2.1434    2.0625    0.0000 N   0  0  0  0  0  0  0  0  0  0  0  0
   -0.7145    2.0625    0.0000 C   0  0  1  0  0  0  0  0  0  0  0  0
   -0.7145    2.8875    0.0000 O   0  0  0  0  0  0  0  0  0  0  0  0
   -1.4289    3.3000    0.0000 C   0  0  1  0  0  0  0  0  0  0  0  0
   -2.1434    2.8875    0.0000 O   0  0  0  0  0  0  0  0  0  0  0  0
   -2.8579    3.3000    0.0000 C   0  0  2  0  0  0  0  0  0  0  0  0
   -3.5724    2.8875    0.0000 C   0  0  0  0  0  0  0  0  0  0  0  0
   -3.5724    2.0625    0.0000 N   0  0  0  0  0  0  0  0  0  0  0  0
   -2.8579    4.1250    0.0000 C   0  0  1  0  0  0  0  0  0  0  0  0
   -3.5724    4.5375    0.0000 O   0  0  0  0  0  0  0  0  0  0  0  0
   -2.1434    4.5375    0.0000 C   0  0  2  0  0  0  0  0  0  0  0  0
   -2.1434    5.3625    0.0000 O   0  0  0  0  0  0  0  0  0  0  0  0
   -1.4289    4.1250    0.0000 C   0  0  1  0  0  0  0  0  0  0  0  0
   -0.7145    4.5375    0.0000 N   0  0  0  0  0  0  0  0  0  0  0  0
    0.0000    1.6500    0.0000 C   0  0  2  0  0  0  0  0  0  0  0  0
    0.7145    2.0625    0.0000 O   0  0  0  0  0  0  0  0  0  0  0  0
    0.7145    2.8875    0.0000 C   0  0  2  0  0  0  0  0  0  0  0  0
    0.0470    3.3724    0.0000 O   0  0  0  0  0  0  0  0  0  0  0  0
    0.3020    4.1570    0.0000 C   0  0  2  0  0  0  0  0  0  0  0  0
   -0.1830    4.8245    0.0000 C   0  0  0  0  0  0  0  0  0  0  0  0
    0.1526    5.5782    0.0000 O   0  0  0  0  0  0  0  0  0  0  0  0
    1.1270    4.1570    0.0000 C   0  0  2  0  0  0  0  0  0  0  0  0
    1.6119    4.8245    0.0000 O   0  0  0  0  0  0  0  0  0  0  0  0
    1.3819    3.3724    0.0000 C   0  0  1  0  0  0  0  0  0  0  0  0
    2.1665    3.1175    0.0000 O   0  0  0  0  0  0  0  0  0  0  0  0
    0.0000    0.8250    0.0000 C   0  0  1  0  0  0  0  0  0  0  0  0
    0.7145    0.4125    0.0000 O   0  0  0  0  0  0  0  0  0  0  0  0
  1  2  1  0  0  0  0
  2  3  1  0  0  0  0
  3  4  1  0  0  0  0
  4  5  1  0  0  0  0
  4  6  1  0  0  0  0
  6  7  2  0  0  0  0
  6  8  1  0  0  0  0
  9  8  1  6  0  0  0
  9 10  1  0  0  0  0
 10 11  1  0  0  0  0
 11 12  1  6  0  0  0
 11 13  1  0  0  0  0
 13 14  1  1  0  0  0
 15 14  1  1  0  0  0
 15 16  1  0  0  0  0
 16 17  1  0  0  0  0
 17 18  1  6  0  0  0
 18 19  1  0  0  0  0
 17 20  1  0  0  0  0
 20 21  1  1  0  0  0
 20 22  1  0  0  0  0
 22 23  1  6  0  0  0
 22 24  1  0  0  0  0
 15 24  1  0  0  0  0
 24 25  1  1  0  0  0
 13 26  1  0  0  0  0
 26 27  1  6  0  0  0
 28 27  1  6  0  0  0
 28 29  1  0  0  0  0
 29 30  1  0  0  0  0
 30 31  1  6  0  0  0
 31 32  1  0  0  0  0
 30 33  1  0  0  0  0
 33 34  1  6  0  0  0
 33 35  1  0  0  0  0
 28 35  1  0  0  0  0
 35 36  1  1  0  0  0
 26 37  1  0  0  0  0
  9 37  1  0  0  0  0
 37 38  1  1  0  0  0
M  END

> <ChembankId>
2069232

> <SMILES>
NCCC(O)C(=O)N[C@@H]1C[C@H](N)[C@@H](O[C@H]2O[C@H](CN)[C@@H](O)[C@H](O)[C@H]2N)[C@H](O[C@@H]3O[C@H](CO)[C@H](O)[C@H]3O)[C@H]1O

> <InChI>
1/C21H41N5O12/c22-2-1-8(28)19(34)26-7-3-6(24)17(37-20-11(25)15(32)13(30)9(4-23)35-20)18(12(7)29)38-21-16(33)14(31)10(5-27)36-21/h6-18,20-21,27-33H,1-5,22-25H2,(H,26,34)

$$$$
2038
  Marvin  11101114192D          

 16 15  0  0  0  0            999 V2000
   -0.1127   -3.1046    0.0000 C   0  0  0  0  0  0  0  0  0  0  0  0
    0.6974   -2.9487    0.0000 C   0  0  0  0  0  0  0  0  0  0  0  0
    1.2375   -3.5724    0.0000 N   0  0  0  0  0  0  0  0  0  0  0  0
    0.9675   -4.3519    0.0000 C   0  0  0  0  0  0  0  0  0  0  0  0
    0.1573   -4.5078    0.0000 C   0  0  0  0  0  0  0  0  0  0  0  0
    2.0476   -3.4164    0.0000 C   0  0  0  0  0  0  0  0  0  0  0  0
    2.3177   -2.6369    0.0000 S   0  0  0  0  0  0  0  0  0  0  0  0
    2.5877   -4.0401    0.0000 S   0  0  0  0  0  0  0  0  0  0  0  0
    3.3979   -3.8842    0.0000 S   0  0  0  0  0  0  0  0  0  0  0  0
    3.9379   -4.5078    0.0000 C   0  0  0  0  0  0  0  0  0  0  0  0
    3.6679   -5.2874    0.0000 S   0  0  0  0  0  0  0  0  0  0  0  0
    4.7481   -4.3519    0.0000 N   0  0  0  0  0  0  0  0  0  0  0  0
    5.2882   -4.9755    0.0000 C   0  0  0  0  0  0  0  0  0  0  0  0
    6.0983   -4.8196    0.0000 C   0  0  0  0  0  0  0  0  0  0  0  0
    5.0181   -3.5724    0.0000 C   0  0  0  0  0  0  0  0  0  0  0  0
    5.8283   -3.4164    0.0000 C   0  0  0  0  0  0  0  0  0  0  0  0
  1  2  1  0  0  0  0
  2  3  1  0  0  0  0
  3  4  1  0  0  0  0
  4  5  1  0  0  0  0
  3  6  1  0  0  0  0
  6  7  2  0  0  0  0
  6  8  1  0  0  0  0
  8  9  1  0  0  0  0
  9 10  1  0  0  0  0
 10 11  2  0  0  0  0
 10 12  1  0  0  0  0
 12 13  1  0  0  0  0
 13 14  1  0  0  0  0
 12 15  1  0  0  0  0
 15 16  1  0  0  0  0
M  END

> <ChembankId>
2038

> <SMILES>
CCN(CC)C(=S)SSC(=S)N(CC)CC

> <InChI>
1/C10H20N2S4/c1-5-11(6-2)9(13)15-16-10(14)12(7-3)8-4/h5-8H2,1-4H3

$$$$
3177451
  Marvin  11101114192D          

 30 33  0  0  1  0            999 V2000
   -0.4317   -1.6637    0.0000 C   0  0  0  0  0  0  0  0  0  0  0  0
    0.3804   -1.5185    0.0000 C   0  0  0  0  0  0  0  0  0  0  0  0
    0.6607   -0.7426    0.0000 O   0  0  0  0  0  0  0  0  0  0  0  0
    0.9122   -2.1492    0.0000 O   0  0  0  0  0  0  0  0  0  0  0  0
    1.7243   -2.0040    0.0000 C   0  0  0  0  0  0  0  0  0  0  0  0
    2.2561   -2.6347    0.0000 C   0  0  0  0  0  0  0  0  0  0  0  0
    1.9758   -3.4106    0.0000 O   0  0  0  0  0  0  0  0  0  0  0  0
    3.0683   -2.4895    0.0000 C   0  0  1  0  0  0  0  0  0  0  0  0
    3.1278   -3.3123    0.0000 O   0  0  0  0  0  0  0  0  0  0  0  0
    2.8390   -1.6970    0.0000 C   0  0  0  0  0  0  0  0  0  0  0  0
    3.5218   -1.2340    0.0000 C   0  0  0  0  0  0  0  0  0  0  0  0
    4.1731   -1.7404    0.0000 C   0  0  0  0  0  0  0  0  0  0  0  0
    4.9853   -1.5952    0.0000 C   0  0  0  0  0  0  0  0  0  0  0  0
    5.2655   -0.8192    0.0000 C   0  0  0  0  0  0  0  0  0  0  0  0
    6.0777   -0.6740    0.0000 C   0  0  0  0  0  0  0  0  0  0  0  0
    6.6095   -1.3047    0.0000 C   0  0  0  0  0  0  0  0  0  0  0  0
    7.4216   -1.1595    0.0000 C   0  0  0  0  0  0  0  0  0  0  0  0
    7.9534   -1.7902    0.0000 C   0  0  0  0  0  0  0  0  0  0  0  0
    8.7655   -1.6450    0.0000 O   0  0  0  0  0  0  0  0  0  0  0  0
    7.6731   -2.5662    0.0000 C   0  0  0  0  0  0  0  0  0  0  0  0
    6.8610   -2.7114    0.0000 C   0  0  0  0  0  0  0  0  0  0  0  0
    6.3292   -2.0807    0.0000 C   0  0  1  0  0  0  0  0  0  0  0  0
    6.0489   -2.8566    0.0000 C   0  0  0  0  0  0  0  0  0  0  0  0
    5.5171   -2.2259    0.0000 C   0  0  2  0  0  0  0  0  0  0  0  0
    5.5766   -3.0487    0.0000 F   0  0  0  0  0  0  0  0  0  0  0  0
    5.2368   -3.0018    0.0000 C   0  0  1  0  0  0  0  0  0  0  0  0
    5.7686   -3.6325    0.0000 O   0  0  0  0  0  0  0  0  0  0  0  0
    4.4247   -3.1470    0.0000 C   0  0  0  0  0  0  0  0  0  0  0  0
    3.8928   -2.5163    0.0000 C   0  0  2  0  0  0  0  0  0  0  0  0
    3.5330   -3.2587    0.0000 C   0  0  0  0  0  0  0  0  0  0  0  0
  1  2  1  0  0  0  0
  2  3  2  0  0  0  0
  2  4  1  0  0  0  0
  4  5  1  0  0  0  0
  5  6  1  0  0  0  0
  6  7  2  0  0  0  0
  8  6  1  1  0  0  0
  8  9  1  6  0  0  0
  8 10  1  0  0  0  0
 10 11  1  0  0  0  0
 11 12  1  0  0  0  0
 12 13  1  0  0  0  0
 13 14  1  0  0  0  0
 14 15  1  0  0  0  0
 15 16  1  0  0  0  0
 16 17  2  0  0  0  0
 17 18  1  0  0  0  0
 18 19  2  0  0  0  0
 18 20  1  0  0  0  0
 20 21  1  0  0  0  0
 21 22  1  0  0  0  0
 16 22  1  0  0  0  0
 22 23  1  1  0  0  0
 22 24  1  0  0  0  0
 13 24  1  0  0  0  0
 24 25  1  6  0  0  0
 24 26  1  0  0  0  0
 26 27  1  1  0  0  0
 26 28  1  0  0  0  0
 28 29  1  0  0  0  0
 12 29  1  0  0  0  0
  8 29  1  0  0  0  0
 29 30  1  1  0  0  0
M  END

> <ChembankId>
3177451

> <SMILES>
CC(=O)OCC(=O)[C@@]1(O)CCC2C3CCC4=CC(=O)CC[C@]4(C)[C@@]3(F)[C@@H](O)C[C@@]21C

> <InChI>
1/C23H31FO6/c1-13(25)30-12-19(28)22(29)9-7-16-17-5-4-14-10-15(26)6-8-20(14,2)23(17,24)18(27)11-21(16,22)3/h10,16-18,27,29H,4-9,11-12H2,1-3H3

$$$$
3480074
  Marvin  11101114192D          

 25 27  0  0  0  0            999 V2000
    2.2501   10.9527    0.0000 C   0  0  0  0  0  0  0  0  0  0  0  0
    2.9646   10.5402    0.0000 C   0  0  0  0  0  0  0  0  0  0  0  0
    2.9646    9.7152    0.0000 C   0  0  0  0  0  0  0  0  0  0  0  0
    3.6791    9.3027    0.0000 C   0  0  0  0  0  0  0  0  0  0  0  0
    3.6791    8.4777    0.0000 C   0  0  0  0  0  0  0  0  0  0  0  0
    2.9646    8.0652    0.0000 C   0  0  0  0  0  0  0  0  0  0  0  0
    2.9646    7.2402    0.0000 C   0  0  0  0  0  0  0  0  0  0  0  0
    2.2501    6.8277    0.0000 C   0  0  0  0  0  0  0  0  0  0  0  0
    2.2501    6.0027    0.0000 O   0  0  0  0  0  0  0  0  0  0  0  0
    1.5356    5.5902    0.0000 C   0  0  0  0  0  0  0  0  0  0  0  0
    1.5356    4.7652    0.0000 C   0  0  0  0  0  0  0  0  0  0  0  0
    0.8212    4.3527    0.0000 C   0  0  0  0  0  0  0  0  0  0  0  0
    0.1067    4.7652    0.0000 C   0  0  0  0  0  0  0  0  0  0  0  0
   -0.6078    4.3527    0.0000 C   0  0  0  0  0  0  0  0  0  0  0  0
   -0.6078    3.5277    0.0000 C   0  0  0  0  0  0  0  0  0  0  0  0
    0.0597    3.0428    0.0000 S   0  0  0  0  0  0  0  0  0  0  0  0
   -0.1953    2.2581    0.0000 C   0  0  0  0  0  0  0  0  0  0  0  0
    0.2897    1.5907    0.0000 O   0  0  0  0  0  0  0  0  0  0  0  0
   -1.0203    2.2581    0.0000 N   0  0  0  0  0  0  0  0  0  0  0  0
   -1.2752    3.0428    0.0000 C   0  0  0  0  0  0  0  0  0  0  0  0
   -2.0598    3.2977    0.0000 O   0  0  0  0  0  0  0  0  0  0  0  0
    0.1067    5.5902    0.0000 C   0  0  0  0  0  0  0  0  0  0  0  0
    0.8212    6.0027    0.0000 C   0  0  0  0  0  0  0  0  0  0  0  0
    2.2501    8.4777    0.0000 N   0  0  0  0  0  0  0  0  0  0  0  0
    2.2501    9.3027    0.0000 C   0  0  0  0  0  0  0  0  0  0  0  0
  1  2  1  0  0  0  0
  2  3  1  0  0  0  0
  3  4  4  0  0  0  0
  4  5  4  0  0  0  0
  5  6  4  0  0  0  0
  6  7  1  0  0  0  0
  7  8  1  0  0  0  0
  8  9  1  0  0  0  0
  9 10  1  0  0  0  0
 10 11  4  0  0  0  0
 11 12  4  0  0  0  0
 12 13  4  0  0  0  0
 13 14  1  0  0  0  0
 14 15  1  0  0  0  0
 15 16  1  0  0  0  0
 16 17  1  0  0  0  0
 17 18  2  0  0  0  0
 17 19  1  0  0  0  0
 19 20  1  0  0  0  0
 15 20  1  0  0  0  0
 20 21  2  0  0  0  0
 13 22  4  0  0  0  0
 22 23  4  0  0  0  0
 10 23  4  0  0  0  0
  6 24  4  0  0  0  0
 24 25  4  0  0  0  0
  3 25  4  0  0  0  0
M  END

> <ChembankId>
3480074

> <SMILES>
CCc1ccc(CCOc2ccc(CC3SC(=O)NC3=O)cc2)nc1

> <InChI>
1/C19H20N2O3S/c1-2-13-3-6-15(20-12-13)9-10-24-16-7-4-14(5-8-16)11-17-18(22)21-19(23)25-17/h3-8,12,17H,2,9-11H2,1H3,(H,21,22,23)

$$$$
1000093
  Marvin  11101114192D          

 25 27  0  0  0  0            999 V2000
    0.7145   -2.8875    0.0000 C   0  0  0  0  0  0  0  0  0  0  0  0
    0.7145   -2.0625    0.0000 N   0  0  0  0  0  0  0  0  0  0  0  0
    1.4289   -1.6500    0.0000 C   0  0  0  0  0  0  0  0  0  0  0  0
    2.1434   -2.0625    0.0000 C   0  0  0  0  0  0  0  0  0  0  0  0
    2.8579   -1.6500    0.0000 O   0  0  0  0  0  0  0  0  0  0  0  0
    3.5724   -2.0625    0.0000 C   0  0  0  0  0  0  0  0  0  0  0  0
    4.2868   -1.6500    0.0000 C   0  0  0  0  0  0  0  0  0  0  0  0
    5.0013   -2.0625    0.0000 C   0  0  0  0  0  0  0  0  0  0  0  0
    5.0013   -2.8875    0.0000 C   0  0  0  0  0  0  0  0  0  0  0  0
    5.7158   -3.3000    0.0000 C   0  0  0  0  0  0  0  0  0  0  0  0
    5.7158   -4.1250    0.0000 C   0  0  0  0  0  0  0  0  0  0  0  0
    6.3832   -4.6099    0.0000 S   0  0  0  0  0  0  0  0  0  0  0  0
    6.1283   -5.3945    0.0000 C   0  0  0  0  0  0  0  0  0  0  0  0
    6.6132   -6.0620    0.0000 O   0  0  0  0  0  0  0  0  0  0  0  0
    5.3033   -5.3945    0.0000 N   0  0  0  0  0  0  0  0  0  0  0  0
    5.0483   -4.6099    0.0000 C   0  0  0  0  0  0  0  0  0  0  0  0
    4.2637   -4.3550    0.0000 O   0  0  0  0  0  0  0  0  0  0  0  0
    4.2868   -3.3000    0.0000 C   0  0  0  0  0  0  0  0  0  0  0  0
    3.5724   -2.8875    0.0000 C   0  0  0  0  0  0  0  0  0  0  0  0
    0.0000   -1.6500    0.0000 C   0  0  0  0  0  0  0  0  0  0  0  0
   -0.7145   -2.0625    0.0000 C   0  0  0  0  0  0  0  0  0  0  0  0
   -1.4289   -1.6500    0.0000 C   0  0  0  0  0  0  0  0  0  0  0  0
   -1.4289   -0.8250    0.0000 C   0  0  0  0  0  0  0  0  0  0  0  0
   -0.7145   -0.4125    0.0000 C   0  0  0  0  0  0  0  0  0  0  0  0
    0.0000   -0.8250    0.0000 N   0  0  0  0  0  0  0  0  0  0  0  0
  1  2  1  0  0  0  0
  2  3  1  0  0  0  0
  3  4  1  0  0  0  0
  4  5  1  0  0  0  0
  5  6  1  0  0  0  0
  6  7  4  0  0  0  0
  7  8  4  0  0  0  0
  8  9  4  0  0  0  0
  9 10  1  0  0  0  0
 10 11  1  0  0  0  0
 11 12  1  0  0  0  0
 12 13  1  0  0  0  0
 13 14  2  0  0  0  0
 13 15  1  0  0  0  0
 15 16  1  0  0  0  0
 11 16  1  0  0  0  0
 16 17  2  0  0  0  0
  9 18  4  0  0  0  0
 18 19  4  0  0  0  0
  6 19  4  0  0  0  0
  2 20  1  0  0  0  0
 20 21  4  0  0  0  0
 21 22  4  0  0  0  0
 22 23  4  0  0  0  0
 23 24  4  0  0  0  0
 24 25  4  0  0  0  0
 20 25  4  0  0  0  0
M  END

> <ChembankId>
1000093

> <SMILES>
CN(CCOc1ccc(CC2SC(=O)NC2=O)cc1)c3ccccn3

> <InChI>
1/C18H19N3O3S/c1-21(16-4-2-3-9-19-16)10-11-24-14-7-5-13(6-8-14)12-15-17(22)20-18(23)25-15/h2-9,15H,10-12H2,1H3,(H,20,22,23)

$$$$
1001030
  Marvin  11101114192D          

 22 24  0  0  0  0            999 V2000
    0.7145   -0.4125    0.0000 C   0  0  0  0  0  0  0  0  0  0  0  0
    0.7145   -1.2375    0.0000 C   0  0  0  0  0  0  0  0  0  0  0  0
    1.3819   -1.7224    0.0000 O   0  0  0  0  0  0  0  0  0  0  0  0
    1.1270   -2.5070    0.0000 N   0  0  0  0  0  0  0  0  0  0  0  0
    0.3020   -2.5070    0.0000 C   0  0  0  0  0  0  0  0  0  0  0  0
    0.0470   -1.7224    0.0000 C   0  0  0  0  0  0  0  0  0  0  0  0
   -0.7376   -1.4675    0.0000 C   0  0  0  0  0  0  0  0  0  0  0  0
   -1.3507   -2.0195    0.0000 C   0  0  0  0  0  0  0  0  0  0  0  0
   -2.1353   -1.7646    0.0000 C   0  0  0  0  0  0  0  0  0  0  0  0
   -2.3068   -0.9576    0.0000 C   0  0  0  0  0  0  0  0  0  0  0  0
   -1.6937   -0.4056    0.0000 C   0  0  0  0  0  0  0  0  0  0  0  0
   -0.9091   -0.6605    0.0000 C   0  0  0  0  0  0  0  0  0  0  0  0
   -3.0915   -0.7027    0.0000 S   0  0  0  0  0  0  0  0  0  0  0  0
   -3.8761   -0.4477    0.0000 O   0  0  0  0  0  0  0  0  0  0  0  0
   -3.3464   -1.4873    0.0000 O   0  0  0  0  0  0  0  0  0  0  0  0
   -2.8365    0.0820    0.0000 N   0  0  0  0  0  0  0  0  0  0  0  0
   -0.1830   -3.1745    0.0000 C   0  0  0  0  0  0  0  0  0  0  0  0
    0.1526   -3.9282    0.0000 C   0  0  0  0  0  0  0  0  0  0  0  0
   -0.3323   -4.5956    0.0000 C   0  0  0  0  0  0  0  0  0  0  0  0
   -1.1528   -4.5094    0.0000 C   0  0  0  0  0  0  0  0  0  0  0  0
   -1.4884   -3.7557    0.0000 C   0  0  0  0  0  0  0  0  0  0  0  0
   -1.0034   -3.0882    0.0000 C   0  0  0  0  0  0  0  0  0  0  0  0
  1  2  1  0  0  0  0
  2  3  4  0  0  0  0
  3  4  4  0  0  0  0
  4  5  4  0  0  0  0
  5  6  4  0  0  0  0
  2  6  4  0  0  0  0
  6  7  1  0  0  0  0
  7  8  4  0  0  0  0
  8  9  4  0  0  0  0
  9 10  4  0  0  0  0
 10 11  4  0  0  0  0
 11 12  4  0  0  0  0
  7 12  4  0  0  0  0
 10 13  1  0  0  0  0
 13 14  2  0  0  0  0
 13 15  2  0  0  0  0
 13 16  1  0  0  0  0
  5 17  1  0  0  0  0
 17 18  4  0  0  0  0
 18 19  4  0  0  0  0
 19 20  4  0  0  0  0
 20 21  4  0  0  0  0
 21 22  4  0  0  0  0
 17 22  4  0  0  0  0
M  END

> <ChembankId>
1001030

> <SMILES>
Cc1onc(c1c2ccc(cc2)S(=O)(=O)N)c3ccccc3

> <InChI>
1/C16H14N2O3S/c1-11-15(12-7-9-14(10-8-12)22(17,19)20)16(18-21-11)13-5-3-2-4-6-13/h2-10H,1H3,(H2,17,19,20)

$$$$
1001638
  Marvin  11101114192D          

 24 25  0  0  0  0            999 V2000
    1.4289   -5.7750    0.0000 C   0  0  0  0  0  0  0  0  0  0  0  0
    2.1434   -5.3625    0.0000 C   0  0  0  0  0  0  0  0  0  0  0  0
    2.1434   -4.5375    0.0000 C   0  0  0  0  0  0  0  0  0  0  0  0
    2.8579   -5.7750    0.0000 N   0  0  0  0  0  0  0  0  0  0  0  0
    3.5724   -5.3625    0.0000 C   0  0  0  0  0  0  0  0  0  0  0  0
    3.5724   -4.5375    0.0000 O   0  0  0  0  0  0  0  0  0  0  0  0
    4.2868   -5.7750    0.0000 N   0  0  0  0  0  0  0  0  0  0  0  0
    5.0013   -5.3625    0.0000 S   0  0  0  0  0  0  0  0  0  0  0  0
    5.4138   -6.0770    0.0000 O   0  0  0  0  0  0  0  0  0  0  0  0
    4.5888   -4.6480    0.0000 O   0  0  0  0  0  0  0  0  0  0  0  0
    5.7158   -4.9500    0.0000 C   0  0  0  0  0  0  0  0  0  0  0  0
    5.7158   -4.1250    0.0000 C   0  0  0  0  0  0  0  0  0  0  0  0
    6.4302   -3.7125    0.0000 N   0  0  0  0  0  0  0  0  0  0  0  0
    7.1447   -4.1250    0.0000 C   0  0  0  0  0  0  0  0  0  0  0  0
    7.1447   -4.9500    0.0000 C   0  0  0  0  0  0  0  0  0  0  0  0
    6.4302   -5.3625    0.0000 C   0  0  0  0  0  0  0  0  0  0  0  0
    6.4302   -6.1875    0.0000 N   0  0  0  0  0  0  0  0  0  0  0  0
    7.1447   -6.6000    0.0000 C   0  0  0  0  0  0  0  0  0  0  0  0
    7.8592   -6.1875    0.0000 C   0  0  0  0  0  0  0  0  0  0  0  0
    8.5737   -6.6000    0.0000 C   0  0  0  0  0  0  0  0  0  0  0  0
    8.5737   -7.4250    0.0000 C   0  0  0  0  0  0  0  0  0  0  0  0
    7.8592   -7.8375    0.0000 C   0  0  0  0  0  0  0  0  0  0  0  0
    7.8592   -8.6625    0.0000 C   0  0  0  0  0  0  0  0  0  0  0  0
    7.1447   -7.4250    0.0000 C   0  0  0  0  0  0  0  0  0  0  0  0
  1  2  1  0  0  0  0
  2  3  1  0  0  0  0
  2  4  1  0  0  0  0
  4  5  1  0  0  0  0
  5  6  2  0  0  0  0
  5  7  1  0  0  0  0
  7  8  1  0  0  0  0
  8  9  2  0  0  0  0
  8 10  2  0  0  0  0
  8 11  1  0  0  0  0
 11 12  4  0  0  0  0
 12 13  4  0  0  0  0
 13 14  4  0  0  0  0
 14 15  4  0  0  0  0
 15 16  4  0  0  0  0
 11 16  4  0  0  0  0
 16 17  1  0  0  0  0
 17 18  1  0  0  0  0
 18 19  4  0  0  0  0
 19 20  4  0  0  0  0
 20 21  4  0  0  0  0
 21 22  4  0  0  0  0
 22 23  1  0  0  0  0
 22 24  4  0  0  0  0
 18 24  4  0  0  0  0
M  END

> <ChembankId>
1001638

> <SMILES>
CC(C)NC(=O)NS(=O)(=O)c1cnccc1Nc2cccc(C)c2

> <InChI>
1/C16H20N4O3S/c1-11(2)18-16(21)20-24(22,23)15-10-17-8-7-14(15)19-13-6-4-5-12(3)9-13/h4-11H,1-3H3,(H,17,19)(H2,18,20,21)

$$$$
1020
  Marvin  11101114192D          

 25 26  0  0  0  0            999 V2000
    0.0000   -7.4250    0.0000 N   0  0  0  0  0  0  0  0  0  0  0  0
    0.0000   -6.6000    0.0000 C   0  0  0  0  0  0  0  0  0  0  0  0
   -0.7145   -6.1875    0.0000 N   0  0  0  0  0  0  0  0  0  0  0  0
    0.7145   -6.1875    0.0000 C   0  0  0  0  0  0  0  0  0  0  0  0
    0.7145   -5.3625    0.0000 C   0  0  0  0  0  0  0  0  0  0  0  0
    1.4289   -4.9500    0.0000 C   0  0  0  0  0  0  0  0  0  0  0  0
    2.1434   -5.3625    0.0000 C   0  0  0  0  0  0  0  0  0  0  0  0
    2.8579   -4.9500    0.0000 O   0  0  0  0  0  0  0  0  0  0  0  0
    3.5724   -5.3625    0.0000 C   0  0  0  0  0  0  0  0  0  0  0  0
    4.2868   -4.9500    0.0000 C   0  0  0  0  0  0  0  0  0  0  0  0
    5.0013   -5.3625    0.0000 C   0  0  0  0  0  0  0  0  0  0  0  0
    5.7158   -4.9500    0.0000 C   0  0  0  0  0  0  0  0  0  0  0  0
    6.4302   -5.3625    0.0000 C   0  0  0  0  0  0  0  0  0  0  0  0
    7.1447   -4.9500    0.0000 O   0  0  0  0  0  0  0  0  0  0  0  0
    7.8592   -5.3625    0.0000 C   0  0  0  0  0  0  0  0  0  0  0  0
    8.5737   -4.9500    0.0000 C   0  0  0  0  0  0  0  0  0  0  0  0
    9.2881   -5.3625    0.0000 C   0  0  0  0  0  0  0  0  0  0  0  0
    9.2881   -6.1875    0.0000 C   0  0  0  0  0  0  0  0  0  0  0  0
    8.5737   -6.6000    0.0000 C   0  0  0  0  0  0  0  0  0  0  0  0
    7.8592   -6.1875    0.0000 C   0  0  0  0  0  0  0  0  0  0  0  0
   10.0026   -6.6000    0.0000 C   0  0  0  0  0  0  0  0  0  0  0  0
   10.7171   -6.1875    0.0000 N   0  0  0  0  0  0  0  0  0  0  0  0
   10.0026   -7.4250    0.0000 N   0  0  0  0  0  0  0  0  0  0  0  0
    2.1434   -6.1875    0.0000 C   0  0  0  0  0  0  0  0  0  0  0  0
    1.4289   -6.6000    0.0000 C   0  0  0  0  0  0  0  0  0  0  0  0
  1  2  1  0  0  0  0
  2  3  2  0  0  0  0
  2  4  1  0  0  0  0
  4  5  4  0  0  0  0
  5  6  4  0  0  0  0
  6  7  4  0  0  0  0
  7  8  1  0  0  0  0
  8  9  1  0  0  0  0
  9 10  1  0  0  0  0
 10 11  1  0  0  0  0
 11 12  1  0  0  0  0
 12 13  1  0  0  0  0
 13 14  1  0  0  0  0
 14 15  1  0  0  0  0
 15 16  4  0  0  0  0
 16 17  4  0  0  0  0
 17 18  4  0  0  0  0
 18 19  4  0  0  0  0
 19 20  4  0  0  0  0
 15 20  4  0  0  0  0
 18 21  1  0  0  0  0
 21 22  2  0  0  0  0
 21 23  1  0  0  0  0
  7 24  4  0  0  0  0
 24 25  4  0  0  0  0
  4 25  4  0  0  0  0
M  END

> <ChembankId>
1020

> <SMILES>
NC(=N)c1ccc(OCCCCCOc2ccc(cc2)C(=N)N)cc1

> <InChI>
1/C19H24N4O2/c20-18(21)14-4-8-16(9-5-14)24-12-2-1-3-13-25-17-10-6-15(7-11-17)19(22)23/h4-11H,1-3,12-13H2,(H3,20,21)(H3,22,23)

$$$$
1309
  Marvin  11101114192D          

 15 16  0  0  0  0            999 V2000
    0.7145   -0.4125    0.0000 C   0  0  0  0  0  0  0  0  0  0  0  0
    0.7145   -1.2375    0.0000 C   0  0  0  0  0  0  0  0  0  0  0  0
    1.4289   -1.6500    0.0000 C   0  0  0  0  0  0  0  0  0  0  0  0
    1.4289   -2.4750    0.0000 C   0  0  0  0  0  0  0  0  0  0  0  0
    2.1434   -2.8875    0.0000 C   0  0  0  0  0  0  0  0  0  0  0  0
    2.8579   -2.4750    0.0000 C   0  0  0  0  0  0  0  0  0  0  0  0
    3.5724   -2.8875    0.0000 C   0  0  0  0  0  0  0  0  0  0  0  0
    3.5724   -3.7125    0.0000 C   0  0  0  0  0  0  0  0  0  0  0  0
    2.8579   -4.1250    0.0000 C   0  0  0  0  0  0  0  0  0  0  0  0
    2.1434   -3.7125    0.0000 C   0  0  0  0  0  0  0  0  0  0  0  0
    0.7145   -2.8875    0.0000 N   0  0  0  0  0  0  0  0  0  0  0  0
    0.7145   -3.7125    0.0000 O   0  0  0  0  0  0  0  0  0  0  0  0
    0.0000   -2.4750    0.0000 C   0  0  0  0  0  0  0  0  0  0  0  0
   -0.7145   -2.8875    0.0000 O   0  0  0  0  0  0  0  0  0  0  0  0
    0.0000   -1.6500    0.0000 C   0  0  0  0  0  0  0  0  0  0  0  0
  1  2  1  0  0  0  0
  2  3  4  0  0  0  0
  3  4  4  0  0  0  0
  4  5  1  0  0  0  0
  5  6  1  0  0  0  0
  6  7  1  0  0  0  0
  7  8  1  0  0  0  0
  8  9  1  0  0  0  0
  9 10  1  0  0  0  0
  5 10  1  0  0  0  0
  4 11  4  0  0  0  0
 11 12  1  0  0  0  0
 11 13  4  0  0  0  0
 13 14  2  0  0  0  0
 13 15  4  0  0  0  0
  2 15  4  0  0  0  0
M  END

> <ChembankId>
1309

> <SMILES>
Cc1cc(C2CCCCC2)n(O)c(=O)c1

> <InChI>
1/C12H17NO2/c1-9-7-11(13(15)12(14)8-9)10-5-3-2-4-6-10/h7-8,10,15H,2-6H2,1H3

$$$$
1672
  Marvin  11101114192D          

 22 24  0  0  0  0            999 V2000
    2.1434    1.2375    0.0000 O   0  0  0  0  0  0  0  0  0  0  0  0
    1.4289    0.8250    0.0000 C   0  0  0  0  0  0  0  0  0  0  0  0
    0.7145    1.2375    0.0000 O   0  0  0  0  0  0  0  0  0  0  0  0
    1.4289   -0.0000    0.0000 C   0  0  0  0  0  0  0  0  0  0  0  0
    0.7145   -0.4125    0.0000 C   0  0  0  0  0  0  0  0  0  0  0  0
    0.7145   -1.2375    0.0000 C   0  0  0  0  0  0  0  0  0  0  0  0
    1.3819   -1.7224    0.0000 N   0  0  0  0  0  0  0  0  0  0  0  0
    1.1270   -2.5070    0.0000 C   0  0  0  0  0  0  0  0  0  0  0  0
    0.3020   -2.5070    0.0000 C   0  0  0  0  0  0  0  0  0  0  0  0
    0.0470   -1.7224    0.0000 O   0  0  0  0  0  0  0  0  0  0  0  0
   -0.1830   -3.1745    0.0000 C   0  0  0  0  0  0  0  0  0  0  0  0
    0.1526   -3.9282    0.0000 C   0  0  0  0  0  0  0  0  0  0  0  0
   -0.3323   -4.5956    0.0000 C   0  0  0  0  0  0  0  0  0  0  0  0
   -1.1528   -4.5094    0.0000 C   0  0  0  0  0  0  0  0  0  0  0  0
   -1.4884   -3.7557    0.0000 C   0  0  0  0  0  0  0  0  0  0  0  0
   -1.0034   -3.0882    0.0000 C   0  0  0  0  0  0  0  0  0  0  0  0
    1.6119   -3.1745    0.0000 C   0  0  0  0  0  0  0  0  0  0  0  0
    2.4324   -3.0882    0.0000 C   0  0  0  0  0  0  0  0  0  0  0  0
    2.9173   -3.7557    0.0000 C   0  0  0  0  0  0  0  0  0  0  0  0
    2.5817   -4.5094    0.0000 C   0  0  0  0  0  0  0  0  0  0  0  0
    1.7613   -4.5956    0.0000 C   0  0  0  0  0  0  0  0  0  0  0  0
    1.2763   -3.9282    0.0000 C   0  0  0  0  0  0  0  0  0  0  0  0
  1  2  1  0  0  0  0
  2  3  2  0  0  0  0
  2  4  1  0  0  0  0
  4  5  1  0  0  0  0
  5  6  1  0  0  0  0
  6  7  4  0  0  0  0
  7  8  4  0  0  0  0
  8  9  4  0  0  0  0
  9 10  4  0  0  0  0
  6 10  4  0  0  0  0
  9 11  1  0  0  0  0
 11 12  4  0  0  0  0
 12 13  4  0  0  0  0
 13 14  4  0  0  0  0
 14 15  4  0  0  0  0
 15 16  4  0  0  0  0
 11 16  4  0  0  0  0
  8 17  1  0  0  0  0
 17 18  4  0  0  0  0
 18 19  4  0  0  0  0
 19 20  4  0  0  0  0
 20 21  4  0  0  0  0
 21 22  4  0  0  0  0
 17 22  4  0  0  0  0
M  END

> <ChembankId>
1672

> <SMILES>
OC(=O)CCc1nc(c(o1)c2ccccc2)c3ccccc3

> <InChI>
1/C18H15NO3/c20-16(21)12-11-15-19-17(13-7-3-1-4-8-13)18(22-15)14-9-5-2-6-10-14/h1-10H,11-12H2,(H,20,21)

$$$$
2660
  Marvin  11101114192D          

 15 15  0  0  0  0            999 V2000
    2.8579   -0.0000    0.0000 C   0  0  0  0  0  0  0  0  0  0  0  0
    2.8579    0.8250    0.0000 C   0  0  0  0  0  0  0  0  0  0  0  0
    2.1434    1.2375    0.0000 N   0  0  0  0  0  0  0  0  0  0  0  0
    2.1434    2.0625    0.0000 C   0  0  0  0  0  0  0  0  0  0  0  0
    1.4289    2.4750    0.0000 O   0  0  0  0  0  0  0  0  0  0  0  0
    2.8579    2.4750    0.0000 C   0  0  0  0  0  0  0  0  0  0  0  0
    3.5724    2.0625    0.0000 C   0  0  0  0  0  0  0  0  0  0  0  0
    4.2868    2.4750    0.0000 C   0  0  0  0  0  0  0  0  0  0  0  0
    1.4289    0.8250    0.0000 C   0  0  0  0  0  0  0  0  0  0  0  0
    1.4289   -0.0000    0.0000 C   0  0  0  0  0  0  0  0  0  0  0  0
    0.7145   -0.4125    0.0000 C   0  0  0  0  0  0  0  0  0  0  0  0
    0.0000    0.0000    0.0000 C   0  0  0  0  0  0  0  0  0  0  0  0
    0.0000    0.8250    0.0000 C   0  0  0  0  0  0  0  0  0  0  0  0
    0.7145    1.2375    0.0000 C   0  0  0  0  0  0  0  0  0  0  0  0
    0.7145    2.0625    0.0000 C   0  0  0  0  0  0  0  0  0  0  0  0
  1  2  1  0  0  0  0
  2  3  1  0  0  0  0
  3  4  1  0  0  0  0
  4  5  2  0  0  0  0
  4  6  1  0  0  0  0
  6  7  2  0  0  0  0
  7  8  1  0  0  0  0
  3  9  1  0  0  0  0
  9 10  4  0  0  0  0
 10 11  4  0  0  0  0
 11 12  4  0  0  0  0
 12 13  4  0  0  0  0
 13 14  4  0  0  0  0
  9 14  4  0  0  0  0
 14 15  1  0  0  0  0
M  END

> <ChembankId>
2660

> <SMILES>
CCN(C(=O)/C=C/C)c1ccccc1C

> <InChI>
1/C13H17NO/c1-4-8-13(15)14(5-2)12-10-7-6-9-11(12)3/h4,6-10H,5H2,1-3H3

$$$$
3069053
  Marvin  11101114192D          

 12 12  0  0  0  0            999 V2000
    4.0306    0.0352    0.0000 C   0  0  0  0  0  0  0  0  0  0  0  0
    3.4175    0.5872    0.0000 C   0  0  0  0  0  0  0  0  0  0  0  0
    2.6329    0.3323    0.0000 O   0  0  0  0  0  0  0  0  0  0  0  0
    2.0198    0.8843    0.0000 C   0  0  0  0  0  0  0  0  0  0  0  0
    2.1913    1.6913    0.0000 O   0  0  0  0  0  0  0  0  0  0  0  0
    1.2352    0.6294    0.0000 N   0  0  0  0  0  0  0  0  0  0  0  0
    0.9803   -0.1553    0.0000 C   0  0  0  0  0  0  0  0  0  0  0  0
    0.1553   -0.1553    0.0000 C   0  0  0  0  0  0  0  0  0  0  0  0
   -0.0997    0.6294    0.0000 N   0  0  0  0  0  0  0  0  0  0  0  0
   -0.8843    0.8843    0.0000 C   0  0  0  0  0  0  0  0  0  0  0  0
    0.5678    1.1143    0.0000 C   0  0  0  0  0  0  0  0  0  0  0  0
    0.5678    1.9393    0.0000 S   0  0  0  0  0  0  0  0  0  0  0  0
  1  2  1  0  0  0  0
  2  3  1  0  0  0  0
  3  4  1  0  0  0  0
  4  5  2  0  0  0  0
  4  6  1  0  0  0  0
  6  7  4  0  0  0  0
  7  8  4  0  0  0  0
  8  9  4  0  0  0  0
  9 10  1  0  0  0  0
  9 11  4  0  0  0  0
  6 11  4  0  0  0  0
 11 12  2  0  0  0  0
M  END

> <ChembankId>
3069053

> <SMILES>
CCOC(=O)n1ccn(C)c1=S

> <InChI>
1/C7H10N2O2S/c1-3-11-7(10)9-5-4-8(2)6(9)12/h4-5H,3H2,1-2H3

$$$$
907526
  Marvin  11101114192D          

 26 29  0  0  0  0            999 V2000
    3.0317    4.8783    0.0000 C   0  0  0  0  0  0  0  0  0  0  0  0
    3.0409    4.0533    0.0000 N   0  0  0  0  0  0  0  0  0  0  0  0
    3.7600    3.6489    0.0000 C   0  0  0  0  0  0  0  0  0  0  0  0
    3.7692    2.8239    0.0000 C   0  0  0  0  0  0  0  0  0  0  0  0
    3.0594    2.4034    0.0000 N   0  0  0  0  0  0  0  0  0  0  0  0
    3.0686    1.5785    0.0000 C   0  0  0  0  0  0  0  0  0  0  0  0
    3.7876    1.1740    0.0000 C   0  0  0  0  0  0  0  0  0  0  0  0
    4.4974    1.5945    0.0000 O   0  0  0  0  0  0  0  0  0  0  0  0
    3.7969    0.3491    0.0000 N   0  0  0  0  0  0  0  0  0  0  0  0
    4.5441   -0.0006    0.0000 C   0  0  0  0  0  0  0  0  0  0  0  0
    5.2476    0.4305    0.0000 C   0  0  0  0  0  0  0  0  0  0  0  0
    5.3123    1.2529    0.0000 C   0  0  0  0  0  0  0  0  0  0  0  0
    5.8749   -0.1053    0.0000 S   0  0  0  0  0  0  0  0  0  0  0  0
    5.5591   -0.8675    0.0000 C   0  0  0  0  0  0  0  0  0  0  0  0
    4.7367   -0.8028    0.0000 C   0  0  0  0  0  0  0  0  0  0  0  0
    4.2295   -1.4535    0.0000 C   0  0  0  0  0  0  0  0  0  0  0  0
    4.5958   -2.1927    0.0000 O   0  0  0  0  0  0  0  0  0  0  0  0
    3.4046   -1.4627    0.0000 N   0  0  0  0  0  0  0  0  0  0  0  0
    2.8830   -0.8235    0.0000 C   0  0  0  0  0  0  0  0  0  0  0  0
    2.0974   -1.0755    0.0000 C   0  0  0  0  0  0  0  0  0  0  0  0
    1.4864   -0.5211    0.0000 C   0  0  0  0  0  0  0  0  0  0  0  0
    1.6610    0.2852    0.0000 C   0  0  0  0  0  0  0  0  0  0  0  0
    2.4466    0.5372    0.0000 C   0  0  0  0  0  0  0  0  0  0  0  0
    3.0576   -0.0172    0.0000 C   0  0  0  0  0  0  0  0  0  0  0  0
    2.3403    2.8079    0.0000 C   0  0  0  0  0  0  0  0  0  0  0  0
    2.3311    3.6329    0.0000 C   0  0  0  0  0  0  0  0  0  0  0  0
  1  2  1  0  0  0  0
  2  3  1  0  0  0  0
  3  4  1  0  0  0  0
  4  5  1  0  0  0  0
  5  6  1  0  0  0  0
  6  7  1  0  0  0  0
  7  8  2  0  0  0  0
  7  9  1  0  0  0  0
  9 10  1  0  0  0  0
 10 11  4  0  0  0  0
 11 12  1  0  0  0  0
 11 13  4  0  0  0  0
 13 14  4  0  0  0  0
 14 15  4  0  0  0  0
 10 15  4  0  0  0  0
 15 16  1  0  0  0  0
 16 17  2  0  0  0  0
 16 18  1  0  0  0  0
 18 19  1  0  0  0  0
 19 20  4  0  0  0  0
 20 21  4  0  0  0  0
 21 22  4  0  0  0  0
 22 23  4  0  0  0  0
 23 24  4  0  0  0  0
  9 24  1  0  0  0  0
 19 24  4  0  0  0  0
  5 25  1  0  0  0  0
 25 26  1  0  0  0  0
  2 26  1  0  0  0  0
M  END

> <ChembankId>
907526

> <SMILES>
CN1CCN(CC(=O)N2c3c(C)scc3C(=O)Nc4ccccc24)CC1

> <InChI>
1/C19H22N4O2S/c1-13-18-14(12-26-13)19(25)20-15-5-3-4-6-16(15)23(18)17(24)11-22-9-7-21(2)8-10-22/h3-6,12H,7-11H2,1-2H3,(H,20,25)

$$$$
1143
  Marvin  11101114192D          

 21 22  0  0  1  0            999 V2000
    4.8494    1.3537    0.0000 C   0  0  0  0  0  0  0  0  0  0  0  0
    5.5638    0.9412    0.0000 N   0  0  0  0  0  0  0  0  0  0  0  0
    5.5638    0.1162    0.0000 C   0  0  0  0  0  0  0  0  0  0  0  0
    6.2783    1.3537    0.0000 C   0  0  0  0  0  0  0  0  0  0  0  0
    6.9928    0.9412    0.0000 C   0  0  0  0  0  0  0  0  0  0  0  0
    7.7072    1.3537    0.0000 C   0  0  0  0  0  0  0  0  0  0  0  0
    8.4217    0.9412    0.0000 O   0  0  0  0  0  0  0  0  0  0  0  0
    9.1362    1.3537    0.0000 C   0  0  1  0  0  0  0  0  0  0  0  0
    9.2224    2.1742    0.0000 C   0  0  2  0  0  0  0  0  0  0  0  0
   10.0294    2.3457    0.0000 O   0  0  0  0  0  0  0  0  0  0  0  0
   10.4419    1.6313    0.0000 C   0  0  2  0  0  0  0  0  0  0  0  0
   11.1956    1.2957    0.0000 O   0  0  0  0  0  0  0  0  0  0  0  0
   11.1093    0.4752    0.0000 C   0  0  0  0  0  0  0  0  0  0  0  0
   11.9343    0.4752    0.0000 C   0  0  0  0  0  0  0  0  0  0  0  0
   11.1956   -0.3453    0.0000 C   0  0  0  0  0  0  0  0  0  0  0  0
   10.3024    0.3037    0.0000 O   0  0  0  0  0  0  0  0  0  0  0  0
    9.8899    1.0182    0.0000 C   0  0  2  0  0  0  0  0  0  0  0  0
    8.6093    2.7262    0.0000 C   0  0  0  0  0  0  0  0  0  0  0  0
    8.7809    3.5332    0.0000 O   0  0  0  0  0  0  0  0  0  0  0  0
    7.8247    2.4713    0.0000 C   0  0  0  0  0  0  0  0  0  0  0  0
    7.2116    3.0233    0.0000 O   0  0  0  0  0  0  0  0  0  0  0  0
  1  2  1  0  0  0  0
  2  3  1  0  0  0  0
  2  4  1  0  0  0  0
  4  5  1  0  0  0  0
  5  6  1  0  0  0  0
  6  7  1  0  0  0  0
  8  7  1  1  0  0  0
  8  9  1  0  0  0  0
  9 10  1  0  0  0  0
 11 10  1  6  0  0  0
 11 12  1  0  0  0  0
 12 13  1  0  0  0  0
 13 14  1  0  0  0  0
 13 15  1  0  0  0  0
 13 16  1  0  0  0  0
 17 16  1  6  0  0  0
  8 17  1  0  0  0  0
 11 17  1  0  0  0  0
  9 18  1  1  0  0  0
 18 19  1  0  0  0  0
 18 20  1  0  0  0  0
 20 21  1  0  0  0  0
M  END

> <ChembankId>
1143

> <SMILES>
CN(C)CCCO[C@H]1[C@H](O[C@@H]2OC(C)(C)O[C@H]12)C(O)CO

> <InChI>
1/C14H27NO6/c1-14(2)20-12-11(18-7-5-6-15(3)4)10(9(17)8-16)19-13(12)21-14/h9-13,16-17H,5-8H2,1-4H3/t9-,10-,11+,12+,13+/m1/s1

$$$$
3186
  Marvin  11101114192D          

 22 23  0  0  0  0            999 V2000
   -2.1434   -5.3625    0.0000 C   0  0  0  0  0  0  0  0  0  0  0  0
   -2.1434   -4.5375    0.0000 C   0  0  0  0  0  0  0  0  0  0  0  0
   -2.8579   -4.1250    0.0000 O   0  0  0  0  0  0  0  0  0  0  0  0
   -1.4289   -4.1250    0.0000 C   0  0  0  0  0  0  0  0  0  0  0  0
   -1.4289   -3.3000    0.0000 C   0  0  0  0  0  0  0  0  0  0  0  0
   -0.7145   -2.8875    0.0000 C   0  0  0  0  0  0  0  0  0  0  0  0
    0.0000   -3.3000    0.0000 C   0  0  0  0  0  0  0  0  0  0  0  0
    0.0000   -4.1250    0.0000 C   0  0  0  0  0  0  0  0  0  0  0  0
   -0.7145   -4.5375    0.0000 C   0  0  0  0  0  0  0  0  0  0  0  0
    0.7145   -2.8875    0.0000 S   0  0  0  0  0  0  0  0  0  0  0  0
    1.1270   -3.6020    0.0000 O   0  0  0  0  0  0  0  0  0  0  0  0
    0.3020   -2.1730    0.0000 O   0  0  0  0  0  0  0  0  0  0  0  0
    1.4289   -2.4750    0.0000 N   0  0  0  0  0  0  0  0  0  0  0  0
    2.1434   -2.8875    0.0000 C   0  0  0  0  0  0  0  0  0  0  0  0
    2.1434   -3.7125    0.0000 O   0  0  0  0  0  0  0  0  0  0  0  0
    2.8579   -2.4750    0.0000 N   0  0  0  0  0  0  0  0  0  0  0  0
    3.5724   -2.8875    0.0000 C   0  0  0  0  0  0  0  0  0  0  0  0
    4.2868   -2.4750    0.0000 C   0  0  0  0  0  0  0  0  0  0  0  0
    5.0013   -2.8875    0.0000 C   0  0  0  0  0  0  0  0  0  0  0  0
    5.0013   -3.7125    0.0000 C   0  0  0  0  0  0  0  0  0  0  0  0
    4.2868   -4.1250    0.0000 C   0  0  0  0  0  0  0  0  0  0  0  0
    3.5724   -3.7125    0.0000 C   0  0  0  0  0  0  0  0  0  0  0  0
  1  2  1  0  0  0  0
  2  3  2  0  0  0  0
  2  4  1  0  0  0  0
  4  5  4  0  0  0  0
  5  6  4  0  0  0  0
  6  7  4  0  0  0  0
  7  8  4  0  0  0  0
  8  9  4  0  0  0  0
  4  9  4  0  0  0  0
  7 10  1  0  0  0  0
 10 11  2  0  0  0  0
 10 12  2  0  0  0  0
 10 13  1  0  0  0  0
 13 14  1  0  0  0  0
 14 15  2  0  0  0  0
 14 16  1  0  0  0  0
 16 17  1  0  0  0  0
 17 18  1  0  0  0  0
 18 19  1  0  0  0  0
 19 20  1  0  0  0  0
 20 21  1  0  0  0  0
 21 22  1  0  0  0  0
 17 22  1  0  0  0  0
M  END

> <ChembankId>
3186

> <SMILES>
CC(=O)c1ccc(cc1)S(=O)(=O)NC(=O)NC2CCCCC2

> <InChI>
1/C15H20N2O4S/c1-11(18)12-7-9-14(10-8-12)22(20,21)17-15(19)16-13-5-3-2-4-6-13/h7-10,13H,2-6H2,1H3,(H2,16,17,19)

$$$$
1001858
  Marvin  11101114192D          

 19 19  0  0  1  0            999 V2000
   -3.5724   -2.8875    0.0000 C   0  0  0  0  0  0  0  0  0  0  0  0
   -2.8579   -3.3000    0.0000 C   0  0  0  0  0  0  0  0  0  0  0  0
   -2.8579   -4.1250    0.0000 C   0  0  0  0  0  0  0  0  0  0  0  0
   -2.1434   -2.8875    0.0000 N   0  0  0  0  0  0  0  0  0  0  0  0
   -1.4289   -3.3000    0.0000 C   0  0  0  0  0  0  0  0  0  0  0  0
   -0.7145   -2.8875    0.0000 C   0  0  2  0  0  0  0  0  0  0  0  0
   -0.7145   -2.0625    0.0000 O   0  0  0  0  0  0  0  0  0  0  0  0
    0.0000   -3.3000    0.0000 C   0  0  0  0  0  0  0  0  0  0  0  0
    0.7145   -2.8875    0.0000 O   0  0  0  0  0  0  0  0  0  0  0  0
    1.4289   -3.3000    0.0000 C   0  0  0  0  0  0  0  0  0  0  0  0
    2.1434   -2.8875    0.0000 C   0  0  0  0  0  0  0  0  0  0  0  0
    2.8579   -3.3000    0.0000 C   0  0  0  0  0  0  0  0  0  0  0  0
    2.8579   -4.1250    0.0000 C   0  0  0  0  0  0  0  0  0  0  0  0
    3.5724   -4.5375    0.0000 C   0  0  0  0  0  0  0  0  0  0  0  0
    3.5724   -5.3625    0.0000 C   0  0  0  0  0  0  0  0  0  0  0  0
    4.2868   -5.7750    0.0000 O   0  0  0  0  0  0  0  0  0  0  0  0
    2.8579   -5.7750    0.0000 N   0  0  0  0  0  0  0  0  0  0  0  0
    2.1434   -4.5375    0.0000 C   0  0  0  0  0  0  0  0  0  0  0  0
    1.4289   -4.1250    0.0000 C   0  0  0  0  0  0  0  0  0  0  0  0
  1  2  1  0  0  0  0
  2  3  1  0  0  0  0
  2  4  1  0  0  0  0
  4  5  1  0  0  0  0
  5  6  1  0  0  0  0
  6  7  1  6  0  0  0
  6  8  1  0  0  0  0
  8  9  1  0  0  0  0
  9 10  1  0  0  0  0
 10 11  4  0  0  0  0
 11 12  4  0  0  0  0
 12 13  4  0  0  0  0
 13 14  1  0  0  0  0
 14 15  1  0  0  0  0
 15 16  2  0  0  0  0
 15 17  1  0  0  0  0
 13 18  4  0  0  0  0
 18 19  4  0  0  0  0
 10 19  4  0  0  0  0
M  END

> <ChembankId>
1001858

> <SMILES>
CC(C)NC[C@H](O)COc1ccc(CC(=O)N)cc1

> <InChI>
1/C14H22N2O3/c1-10(2)16-8-12(17)9-19-13-5-3-11(4-6-13)7-14(15)18/h3-6,10,12,16-17H,7-9H2,1-2H3,(H2,15,18)

$$$$
3060137
  Marvin  11101114192D          

 31 34  0  0  0  0            999 V2000
    0.7145   -2.0625    0.0000 C   0  0  0  0  0  0  0  0  0  0  0  0
    1.4289   -1.6500    0.0000 O   0  0  0  0  0  0  0  0  0  0  0  0
    1.4289   -0.8250    0.0000 C   0  0  0  0  0  0  0  0  0  0  0  0
    0.7145   -0.4125    0.0000 C   0  0  0  0  0  0  0  0  0  0  0  0
    0.7145    0.4125    0.0000 C   0  0  0  0  0  0  0  0  0  0  0  0
    1.4289    0.8250    0.0000 C   0  0  0  0  0  0  0  0  0  0  0  0
    2.1434    0.4125    0.0000 C   0  0  0  0  0  0  0  0  0  0  0  0
    2.1434   -0.4125    0.0000 C   0  0  0  0  0  0  0  0  0  0  0  0
    2.8579   -0.8250    0.0000 N   0  0  0  0  0  0  0  0  0  0  0  0
    3.5724   -0.4125    0.0000 C   0  0  0  0  0  0  0  0  0  0  0  0
    4.2868   -0.8250    0.0000 C   0  0  0  0  0  0  0  0  0  0  0  0
    4.2868   -1.6500    0.0000 N   0  0  0  0  0  0  0  0  0  0  0  0
    5.0013   -2.0625    0.0000 C   0  0  0  0  0  0  0  0  0  0  0  0
    5.7158   -1.6500    0.0000 C   0  0  0  0  0  0  0  0  0  0  0  0
    6.4302   -2.0625    0.0000 C   0  0  0  0  0  0  0  0  0  0  0  0
    7.1447   -1.6500    0.0000 C   0  0  0  0  0  0  0  0  0  0  0  0
    7.8592   -2.0625    0.0000 N   0  0  0  0  0  0  0  0  0  0  0  0
    8.5737   -1.6500    0.0000 C   0  0  0  0  0  0  0  0  0  0  0  0
    8.5737   -0.8250    0.0000 O   0  0  0  0  0  0  0  0  0  0  0  0
    9.2881   -2.0625    0.0000 C   0  0  0  0  0  0  0  0  0  0  0  0
   10.0026   -1.6500    0.0000 C   0  0  0  0  0  0  0  0  0  0  0  0
   10.7171   -2.0625    0.0000 C   0  0  0  0  0  0  0  0  0  0  0  0
   10.7171   -2.8875    0.0000 C   0  0  0  0  0  0  0  0  0  0  0  0
   11.4315   -3.3000    0.0000 C   0  0  0  0  0  0  0  0  0  0  0  0
   11.4315   -4.1250    0.0000 C   0  0  0  0  0  0  0  0  0  0  0  0
   10.7171   -4.5375    0.0000 C   0  0  0  0  0  0  0  0  0  0  0  0
   10.0026   -4.1250    0.0000 C   0  0  0  0  0  0  0  0  0  0  0  0
   10.0026   -3.3000    0.0000 C   0  0  0  0  0  0  0  0  0  0  0  0
    9.2881   -2.8875    0.0000 C   0  0  0  0  0  0  0  0  0  0  0  0
    3.5724   -2.0625    0.0000 C   0  0  0  0  0  0  0  0  0  0  0  0
    2.8579   -1.6500    0.0000 C   0  0  0  0  0  0  0  0  0  0  0  0
  1  2  1  0  0  0  0
  2  3  1  0  0  0  0
  3  4  4  0  0  0  0
  4  5  4  0  0  0  0
  5  6  4  0  0  0  0
  6  7  4  0  0  0  0
  7  8  4  0  0  0  0
  3  8  4  0  0  0  0
  8  9  1  0  0  0  0
  9 10  1  0  0  0  0
 10 11  1  0  0  0  0
 11 12  1  0  0  0  0
 12 13  1  0  0  0  0
 13 14  1  0  0  0  0
 14 15  1  0  0  0  0
 15 16  1  0  0  0  0
 16 17  1  0  0  0  0
 17 18  1  0  0  0  0
 18 19  2  0  0  0  0
 18 20  1  0  0  0  0
 20 21  4  0  0  0  0
 21 22  4  0  0  0  0
 22 23  4  0  0  0  0
 23 24  4  0  0  0  0
 24 25  4  0  0  0  0
 25 26  4  0  0  0  0
 26 27  4  0  0  0  0
 27 28  4  0  0  0  0
 23 28  4  0  0  0  0
 28 29  4  0  0  0  0
 20 29  4  0  0  0  0
 12 30  1  0  0  0  0
 30 31  1  0  0  0  0
  9 31  1  0  0  0  0
M  END

> <ChembankId>
3060137

> <SMILES>
COc1ccccc1N2CCN(CCCCNC(=O)c3ccc4ccccc4c3)CC2

> <InChI>
1/C26H31N3O2/c1-31-25-11-5-4-10-24(25)29-18-16-28(17-19-29)15-7-6-14-27-26(30)23-13-12-21-8-2-3-9-22(21)20-23/h2-5,8-13,20H,6-7,14-19H2,1H3,(H,27,30)

$$$$
907247
  Marvin  11101114192D          

 13 13  0  0  0  0            999 V2000
   -3.2588   -3.0957    0.0000 N   0  0  0  0  0  0  0  0  0  0  0  0
   -2.5443   -3.5082    0.0000 C   0  0  0  0  0  0  0  0  0  0  0  0
   -1.8298   -3.0957    0.0000 C   0  0  0  0  0  0  0  0  0  0  0  0
   -1.1154   -3.5082    0.0000 C   0  0  0  0  0  0  0  0  0  0  0  0
   -1.1154   -4.3332    0.0000 O   0  0  0  0  0  0  0  0  0  0  0  0
   -0.4009   -3.0957    0.0000 N   0  0  0  0  0  0  0  0  0  0  0  0
    0.3136   -3.5082    0.0000 C   0  0  0  0  0  0  0  0  0  0  0  0
    1.0280   -3.0957    0.0000 C   0  0  0  0  0  0  0  0  0  0  0  0
    1.7425   -3.5082    0.0000 C   0  0  0  0  0  0  0  0  0  0  0  0
    2.4962   -3.1727    0.0000 C   0  0  0  0  0  0  0  0  0  0  0  0
    3.0482   -3.7858    0.0000 N   0  0  0  0  0  0  0  0  0  0  0  0
    2.6357   -4.5002    0.0000 C   0  0  0  0  0  0  0  0  0  0  0  0
    1.8287   -4.3287    0.0000 N   0  0  0  0  0  0  0  0  0  0  0  0
  1  2  1  0  0  0  0
  2  3  1  0  0  0  0
  3  4  1  0  0  0  0
  4  5  2  0  0  0  0
  4  6  1  0  0  0  0
  6  7  1  0  0  0  0
  7  8  1  0  0  0  0
  8  9  1  0  0  0  0
  9 10  4  0  0  0  0
 10 11  4  0  0  0  0
 11 12  4  0  0  0  0
 12 13  4  0  0  0  0
  9 13  4  0  0  0  0
M  STY  1   1 DAT
M  SAL   1  1  13
M  SDT   1 MRV_IMPLICIT_H                                        
M  SDD   1     0.0000    0.0000    DR    ALL  0       0  
M  SED   1 IMPL_H1
M  END

> <ChembankId>
907247

> <SMILES>
NCCC(=O)NCCc1cnc[nH]1

> <InChI>
1/C8H14N4O/c9-3-1-8(13)11-4-2-7-5-10-6-12-7/h5-6H,1-4,9H2,(H,10,12)(H,11,13)

$$$$
3176928
  Marvin  11101114192D          

 26 29  0  0  1  0            999 V2000
    3.5330   -3.2587    0.0000 C   0  0  0  0  0  0  0  0  0  0  0  0
    3.8928   -2.5163    0.0000 C   0  0  2  0  0  0  0  0  0  0  0  0
    4.4247   -3.1470    0.0000 C   0  0  0  0  0  0  0  0  0  0  0  0
    5.2368   -3.0018    0.0000 C   0  0  0  0  0  0  0  0  0  0  0  0
    5.7686   -3.6325    0.0000 O   0  0  0  0  0  0  0  0  0  0  0  0
    5.5171   -2.2259    0.0000 C   0  0  1  0  0  0  0  0  0  0  0  0
    4.9853   -1.5952    0.0000 C   0  0  1  0  0  0  0  0  0  0  0  0
    5.2655   -0.8192    0.0000 C   0  0  0  0  0  0  0  0  0  0  0  0
    6.0777   -0.6740    0.0000 C   0  0  0  0  0  0  0  0  0  0  0  0
    6.6095   -1.3047    0.0000 C   0  0  0  0  0  0  0  0  0  0  0  0
    7.4216   -1.1595    0.0000 C   0  0  0  0  0  0  0  0  0  0  0  0
    7.9534   -1.7902    0.0000 C   0  0  0  0  0  0  0  0  0  0  0  0
    8.7655   -1.6450    0.0000 O   0  0  0  0  0  0  0  0  0  0  0  0
    7.6731   -2.5662    0.0000 C   0  0  0  0  0  0  0  0  0  0  0  0
    6.8610   -2.7114    0.0000 C   0  0  0  0  0  0  0  0  0  0  0  0
    6.3292   -2.0807    0.0000 C   0  0  2  0  0  0  0  0  0  0  0  0
    6.0489   -2.8566    0.0000 C   0  0  0  0  0  0  0  0  0  0  0  0
    4.1731   -1.7404    0.0000 C   0  0  2  0  0  0  0  0  0  0  0  0
    3.5218   -1.2340    0.0000 C   0  0  0  0  0  0  0  0  0  0  0  0
    2.8390   -1.6970    0.0000 C   0  0  0  0  0  0  0  0  0  0  0  0
    3.0683   -2.4895    0.0000 C   0  0  1  0  0  0  0  0  0  0  0  0
    2.3074   -2.8084    0.0000 O   0  0  0  0  0  0  0  0  0  0  0  0
    2.9469   -3.3055    0.0000 C   0  0  0  0  0  0  0  0  0  0  0  0
    3.5929   -3.8187    0.0000 O   0  0  0  0  0  0  0  0  0  0  0  0
    2.1795   -3.6084    0.0000 C   0  0  0  0  0  0  0  0  0  0  0  0
    2.0581   -4.4244    0.0000 O   0  0  0  0  0  0  0  0  0  0  0  0
  2  1  1  1  0  0  0
  2  3  1  0  0  0  0
  3  4  1  0  0  0  0
  4  5  2  0  0  0  0
  6  4  1  1  0  0  0
  6  7  1  0  0  0  0
  7  8  1  6  0  0  0
  8  9  1  0  0  0  0
  9 10  1  0  0  0  0
 10 11  2  0  0  0  0
 11 12  1  0  0  0  0
 12 13  2  0  0  0  0
 12 14  1  0  0  0  0
 14 15  1  0  0  0  0
 15 16  1  0  0  0  0
  6 16  1  0  0  0  0
 10 16  1  0  0  0  0
 16 17  1  1  0  0  0
  7 18  1  0  0  0  0
  2 18  1  0  0  0  0
 18 19  1  1  0  0  0
 19 20  1  0  0  0  0
 20 21  1  0  0  0  0
  2 21  1  0  0  0  0
 21 22  1  6  0  0  0
 21 23  1  1  0  0  0
 23 24  2  0  0  0  0
 23 25  1  0  0  0  0
 25 26  1  0  0  0  0
M  END

> <ChembankId>
3176928

> <SMILES>
C[C@@]12CC(=O)[C@H]3[C@@H](CCC4=CC(=O)CC[C@]34C)[C@@H]2CC[C@]1(O)C(=O)CO

> <InChI>
1/C21H28O5/c1-19-7-5-13(23)9-12(19)3-4-14-15-6-8-21(26,17(25)11-22)20(15,2)10-16(24)18(14)19/h9,14-15,18,22,26H,3-8,10-11H2,1-2H3

$$$$
3326
  Marvin  11101114192D          

 22 25  0  0  0  0            999 V2000
    3.8037    3.6320    0.0000 C   0  0  0  0  0  0  0  0  0  0  0  0
    3.8037    2.8070    0.0000 N   0  0  0  0  0  0  0  0  0  0  0  0
    4.5181    2.3945    0.0000 C   0  0  0  0  0  0  0  0  0  0  0  0
    4.5181    1.5695    0.0000 C   0  0  0  0  0  0  0  0  0  0  0  0
    3.8037    1.1570    0.0000 C   0  0  0  0  0  0  0  0  0  0  0  0
    3.8037    0.3320    0.0000 C   0  0  0  0  0  0  0  0  0  0  0  0
    4.5470   -0.0260    0.0000 C   0  0  0  0  0  0  0  0  0  0  0  0
    5.1517    0.5352    0.0000 C   0  0  0  0  0  0  0  0  0  0  0  0
    5.9401    0.2920    0.0000 C   0  0  0  0  0  0  0  0  0  0  0  0
    6.1237   -0.5123    0.0000 C   0  0  0  0  0  0  0  0  0  0  0  0
    5.5189   -1.0735    0.0000 C   0  0  0  0  0  0  0  0  0  0  0  0
    4.7305   -0.8303    0.0000 C   0  0  0  0  0  0  0  0  0  0  0  0
    4.2162   -1.4753    0.0000 C   0  0  0  0  0  0  0  0  0  0  0  0
    3.3912   -1.4753    0.0000 C   0  0  0  0  0  0  0  0  0  0  0  0
    2.8768   -0.8303    0.0000 C   0  0  0  0  0  0  0  0  0  0  0  0
    2.0884   -1.0735    0.0000 C   0  0  0  0  0  0  0  0  0  0  0  0
    1.4837   -0.5123    0.0000 C   0  0  0  0  0  0  0  0  0  0  0  0
    1.6673    0.2920    0.0000 C   0  0  0  0  0  0  0  0  0  0  0  0
    2.4556    0.5352    0.0000 C   0  0  0  0  0  0  0  0  0  0  0  0
    3.0604   -0.0260    0.0000 C   0  0  0  0  0  0  0  0  0  0  0  0
    3.0892    1.5695    0.0000 C   0  0  0  0  0  0  0  0  0  0  0  0
    3.0892    2.3945    0.0000 C   0  0  0  0  0  0  0  0  0  0  0  0
  1  2  1  0  0  0  0
  2  3  1  0  0  0  0
  3  4  1  0  0  0  0
  4  5  1  0  0  0  0
  5  6  2  0  0  0  0
  6  7  1  0  0  0  0
  7  8  4  0  0  0  0
  8  9  4  0  0  0  0
  9 10  4  0  0  0  0
 10 11  4  0  0  0  0
 11 12  4  0  0  0  0
  7 12  4  0  0  0  0
 12 13  1  0  0  0  0
 13 14  2  0  0  0  0
 14 15  1  0  0  0  0
 15 16  4  0  0  0  0
 16 17  4  0  0  0  0
 17 18  4  0  0  0  0
 18 19  4  0  0  0  0
 19 20  4  0  0  0  0
  6 20  1  0  0  0  0
 15 20  4  0  0  0  0
  5 21  1  0  0  0  0
 21 22  1  0  0  0  0
  2 22  1  0  0  0  0
M  END

> <ChembankId>
3326

> <SMILES>
CN1CCC(=C2c3ccccc3C=Cc4ccccc24)CC1

> <InChI>
1/C21H21N/c1-22-14-12-18(13-15-22)21-19-8-4-2-6-16(19)10-11-17-7-3-5-9-20(17)21/h2-11H,12-15H2,1H3

$$$$
386963
  Marvin  11101114192D          

 23 26  0  0  0  0            999 V2000
    3.0919   -4.6024    0.0000 Cl  0  0  0  0  0  0  0  0  0  0  0  0
    2.5399   -3.9893    0.0000 C   0  0  0  0  0  0  0  0  0  0  0  0
    1.7329   -4.1608    0.0000 C   0  0  0  0  0  0  0  0  0  0  0  0
    1.1809   -3.5477    0.0000 C   0  0  0  0  0  0  0  0  0  0  0  0
    1.4358   -2.7631    0.0000 C   0  0  0  0  0  0  0  0  0  0  0  0
    0.8838   -2.1500    0.0000 C   0  0  0  0  0  0  0  0  0  0  0  0
    1.1387   -1.3654    0.0000 N   0  0  0  0  0  0  0  0  0  0  0  0
    0.6538   -0.6979    0.0000 C   0  0  0  0  0  0  0  0  0  0  0  0
   -0.1712   -0.6979    0.0000 C   0  0  0  0  0  0  0  0  0  0  0  0
   -0.5837    0.0165    0.0000 N   0  0  0  0  0  0  0  0  0  0  0  0
   -1.4042    0.1028    0.0000 C   0  0  0  0  0  0  0  0  0  0  0  0
   -1.5757    0.9097    0.0000 C   0  0  0  0  0  0  0  0  0  0  0  0
   -0.8612    1.3222    0.0000 C   0  0  0  0  0  0  0  0  0  0  0  0
   -0.2481    0.7702    0.0000 C   0  0  0  0  0  0  0  0  0  0  0  0
    1.1387   -0.0305    0.0000 N   0  0  0  0  0  0  0  0  0  0  0  0
    1.9233   -0.2854    0.0000 C   0  0  0  0  0  0  0  0  0  0  0  0
    2.6378    0.1271    0.0000 C   0  0  0  0  0  0  0  0  0  0  0  0
    3.3523   -0.2854    0.0000 C   0  0  0  0  0  0  0  0  0  0  0  0
    3.3523   -1.1104    0.0000 C   0  0  0  0  0  0  0  0  0  0  0  0
    2.6378   -1.5229    0.0000 C   0  0  0  0  0  0  0  0  0  0  0  0
    1.9233   -1.1104    0.0000 C   0  0  0  0  0  0  0  0  0  0  0  0
    2.2428   -2.5916    0.0000 C   0  0  0  0  0  0  0  0  0  0  0  0
    2.7948   -3.2047    0.0000 C   0  0  0  0  0  0  0  0  0  0  0  0
  1  2  1  0  0  0  0
  2  3  4  0  0  0  0
  3  4  4  0  0  0  0
  4  5  4  0  0  0  0
  5  6  1  0  0  0  0
  6  7  1  0  0  0  0
  7  8  4  0  0  0  0
  8  9  1  0  0  0  0
  9 10  1  0  0  0  0
 10 11  1  0  0  0  0
 11 12  1  0  0  0  0
 12 13  1  0  0  0  0
 13 14  1  0  0  0  0
 10 14  1  0  0  0  0
  8 15  4  0  0  0  0
 15 16  4  0  0  0  0
 16 17  4  0  0  0  0
 17 18  4  0  0  0  0
 18 19  4  0  0  0  0
 19 20  4  0  0  0  0
 20 21  4  0  0  0  0
  7 21  4  0  0  0  0
 16 21  4  0  0  0  0
  5 22  4  0  0  0  0
 22 23  4  0  0  0  0
  2 23  4  0  0  0  0
M  END

> <ChembankId>
386963

> <SMILES>
Clc1ccc(Cn2c(CN3CCCC3)nc4ccccc24)cc1

> <InChI>
1/C19H20ClN3/c20-16-9-7-15(8-10-16)13-23-18-6-2-1-5-17(18)21-19(23)14-22-11-3-4-12-22/h1-2,5-10H,3-4,11-14H2

$$$$
3172
  Marvin  11101114192D          

 28 31  0  0  0  0            999 V2000
   -2.1434   -2.8875    0.0000 C   0  0  0  0  0  0  0  0  0  0  0  0
   -2.1434   -3.7125    0.0000 C   0  0  0  0  0  0  0  0  0  0  0  0
   -1.4289   -4.1250    0.0000 C   0  0  0  0  0  0  0  0  0  0  0  0
   -1.4289   -4.9500    0.0000 C   0  0  0  0  0  0  0  0  0  0  0  0
   -0.7145   -5.3625    0.0000 C   0  0  0  0  0  0  0  0  0  0  0  0
   -0.7145   -6.1875    0.0000 C   0  0  0  0  0  0  0  0  0  0  0  0
   -1.4289   -6.6000    0.0000 C   0  0  0  0  0  0  0  0  0  0  0  0
   -2.1434   -6.1875    0.0000 C   0  0  0  0  0  0  0  0  0  0  0  0
   -2.1434   -5.3625    0.0000 C   0  0  0  0  0  0  0  0  0  0  0  0
   -1.4289   -2.4750    0.0000 N   0  0  0  0  0  0  0  0  0  0  0  0
   -1.4289   -1.6500    0.0000 C   0  0  0  0  0  0  0  0  0  0  0  0
   -0.7145   -1.2375    0.0000 C   0  0  0  0  0  0  0  0  0  0  0  0
    0.0000   -1.6500    0.0000 N   0  0  0  0  0  0  0  0  0  0  0  0
    0.0000   -2.4750    0.0000 C   0  0  0  0  0  0  0  0  0  0  0  0
   -0.7145   -2.8875    0.0000 C   0  0  0  0  0  0  0  0  0  0  0  0
    0.7145   -1.2375    0.0000 C   0  0  0  0  0  0  0  0  0  0  0  0
    1.4289   -1.6500    0.0000 C   0  0  0  0  0  0  0  0  0  0  0  0
    2.1434   -1.2375    0.0000 C   0  0  0  0  0  0  0  0  0  0  0  0
    2.8579   -1.6500    0.0000 C   0  0  0  0  0  0  0  0  0  0  0  0
    2.8579   -2.4750    0.0000 C   0  0  0  0  0  0  0  0  0  0  0  0
    2.1434   -2.8875    0.0000 C   0  0  0  0  0  0  0  0  0  0  0  0
    1.4289   -2.4750    0.0000 C   0  0  0  0  0  0  0  0  0  0  0  0
    0.7145   -0.4125    0.0000 C   0  0  0  0  0  0  0  0  0  0  0  0
    0.0000   -0.0000    0.0000 C   0  0  0  0  0  0  0  0  0  0  0  0
    0.0000    0.8250    0.0000 C   0  0  0  0  0  0  0  0  0  0  0  0
    0.7145    1.2375    0.0000 C   0  0  0  0  0  0  0  0  0  0  0  0
    1.4289    0.8250    0.0000 C   0  0  0  0  0  0  0  0  0  0  0  0
    1.4289   -0.0000    0.0000 C   0  0  0  0  0  0  0  0  0  0  0  0
  1  2  1  0  0  0  0
  2  3  2  0  0  0  0
  3  4  1  0  0  0  0
  4  5  4  0  0  0  0
  5  6  4  0  0  0  0
  6  7  4  0  0  0  0
  7  8  4  0  0  0  0
  8  9  4  0  0  0  0
  4  9  4  0  0  0  0
  1 10  1  0  0  0  0
 10 11  1  0  0  0  0
 11 12  1  0  0  0  0
 12 13  1  0  0  0  0
 13 14  1  0  0  0  0
 14 15  1  0  0  0  0
 10 15  1  0  0  0  0
 13 16  1  0  0  0  0
 16 17  1  0  0  0  0
 17 18  4  0  0  0  0
 18 19  4  0  0  0  0
 19 20  4  0  0  0  0
 20 21  4  0  0  0  0
 21 22  4  0  0  0  0
 17 22  4  0  0  0  0
 16 23  1  0  0  0  0
 23 24  4  0  0  0  0
 24 25  4  0  0  0  0
 25 26  4  0  0  0  0
 26 27  4  0  0  0  0
 27 28  4  0  0  0  0
 23 28  4  0  0  0  0
M  END

> <ChembankId>
3172

> <SMILES>
C(/C=C/c1ccccc1)N2CCN(CC2)C(c3ccccc3)c4ccccc4

> <InChI>
1/C26H28N2/c1-4-11-23(12-5-1)13-10-18-27-19-21-28(22-20-27)26(24-14-6-2-7-15-24)25-16-8-3-9-17-25/h1-17,26H,18-22H2

$$$$
907283
  Marvin  11101114192D          

 13 14  0  0  0  0            999 V2000
    0.0000   -2.4750    0.0000 N   0  0  0  0  0  0  0  0  0  0  0  0
    0.0000   -1.6500    0.0000 C   0  0  0  0  0  0  0  0  0  0  0  0
   -0.7145   -1.2375    0.0000 N   0  0  0  0  0  0  0  0  0  0  0  0
    0.7145   -1.2375    0.0000 N   0  0  0  0  0  0  0  0  0  0  0  0
    0.7145   -0.4125    0.0000 C   0  0  0  0  0  0  0  0  0  0  0  0
    1.4289    0.0000    0.0000 C   0  0  0  0  0  0  0  0  0  0  0  0
    2.1434   -0.4125    0.0000 C   0  0  0  0  0  0  0  0  0  0  0  0
    2.8579    0.0000    0.0000 C   0  0  0  0  0  0  0  0  0  0  0  0
    3.5724   -0.4125    0.0000 C   0  0  0  0  0  0  0  0  0  0  0  0
    3.5724   -1.2375    0.0000 C   0  0  0  0  0  0  0  0  0  0  0  0
    2.8579   -1.6500    0.0000 C   0  0  0  0  0  0  0  0  0  0  0  0
    2.1434   -1.2375    0.0000 C   0  0  0  0  0  0  0  0  0  0  0  0
    1.4289   -1.6500    0.0000 C   0  0  0  0  0  0  0  0  0  0  0  0
  1  2  1  0  0  0  0
  2  3  2  0  0  0  0
  2  4  1  0  0  0  0
  4  5  1  0  0  0  0
  5  6  1  0  0  0  0
  6  7  1  0  0  0  0
  7  8  4  0  0  0  0
  8  9  4  0  0  0  0
  9 10  4  0  0  0  0
 10 11  4  0  0  0  0
 11 12  4  0  0  0  0
  7 12  4  0  0  0  0
 12 13  1  0  0  0  0
  4 13  1  0  0  0  0
M  END

> <ChembankId>
907283

> <SMILES>
NC(=N)N1CCc2ccccc2C1

> <InChI>
1/C10H13N3/c11-10(12)13-6-5-8-3-1-2-4-9(8)7-13/h1-4H,5-7H2,(H3,11,12)

$$$$
2747
  Marvin  11101114192D          

 15 16  0  0  1  0            999 V2000
    0.7145    6.7661    0.0000 N   0  0  0  0  0  0  0  0  0  0  0  0
    0.7145    5.9411    0.0000 C   0  0  0  0  0  0  0  0  0  0  0  0
    1.4289    5.5286    0.0000 C   0  0  0  0  0  0  0  0  0  0  0  0
    1.4289    4.7036    0.0000 C   0  0  0  0  0  0  0  0  0  0  0  0
    0.7145    4.2911    0.0000 N   0  0  0  0  0  0  0  0  0  0  0  0
    0.7145    3.4661    0.0000 C   0  0  1  0  0  0  0  0  0  0  0  0
    1.3819    2.9812    0.0000 C   0  0  0  0  0  0  0  0  0  0  0  0
    1.1270    2.1965    0.0000 C   0  0  0  0  0  0  0  0  0  0  0  0
    0.3020    2.1965    0.0000 C   0  0  1  0  0  0  0  0  0  0  0  0
   -0.1830    1.5291    0.0000 C   0  0  0  0  0  0  0  0  0  0  0  0
    0.1526    0.7754    0.0000 O   0  0  0  0  0  0  0  0  0  0  0  0
    0.0470    2.9812    0.0000 O   0  0  0  0  0  0  0  0  0  0  0  0
    0.0000    4.7036    0.0000 C   0  0  0  0  0  0  0  0  0  0  0  0
   -0.7145    4.2911    0.0000 O   0  0  0  0  0  0  0  0  0  0  0  0
   -0.0000    5.5286    0.0000 N   0  0  0  0  0  0  0  0  0  0  0  0
  1  2  1  0  0  0  0
  2  3  4  0  0  0  0
  3  4  4  0  0  0  0
  4  5  4  0  0  0  0
  6  5  1  1  0  0  0
  6  7  1  0  0  0  0
  7  8  1  0  0  0  0
  8  9  1  0  0  0  0
  9 10  1  1  0  0  0
 10 11  1  0  0  0  0
  9 12  1  0  0  0  0
  6 12  1  0  0  0  0
  5 13  4  0  0  0  0
 13 14  2  0  0  0  0
 13 15  4  0  0  0  0
  2 15  4  0  0  0  0
M  END

> <ChembankId>
2747

> <SMILES>
Nc1ccn([C@H]2CC[C@@H](CO)O2)c(=O)n1

> <InChI>
1/C9H13N3O3/c10-7-3-4-12(9(14)11-7)8-2-1-6(5-13)15-8/h3-4,6,8,13H,1-2,5H2,(H2,10,11,14)

$$$$
575070
  Marvin  11101114192D          

 21 24  0  0  1  0            999 V2000
    3.5330   -3.2587    0.0000 C   0  0  0  0  0  0  0  0  0  0  0  0
    3.8928   -2.5163    0.0000 C   0  0  2  0  0  0  0  0  0  0  0  0
    4.4247   -3.1470    0.0000 C   0  0  0  0  0  0  0  0  0  0  0  0
    5.2368   -3.0018    0.0000 C   0  0  0  0  0  0  0  0  0  0  0  0
    5.5171   -2.2259    0.0000 C   0  0  1  0  0  0  0  0  0  0  0  0
    4.9853   -1.5952    0.0000 C   0  0  1  0  0  0  0  0  0  0  0  0
    5.2655   -0.8192    0.0000 C   0  0  0  0  0  0  0  0  0  0  0  0
    6.0777   -0.6740    0.0000 C   0  0  0  0  0  0  0  0  0  0  0  0
    6.6095   -1.3047    0.0000 C   0  0  0  0  0  0  0  0  0  0  0  0
    7.4216   -1.1595    0.0000 C   0  0  0  0  0  0  0  0  0  0  0  0
    7.9534   -1.7902    0.0000 C   0  0  1  0  0  0  0  0  0  0  0  0
    8.7655   -1.6450    0.0000 O   0  0  0  0  0  0  0  0  0  0  0  0
    7.6731   -2.5662    0.0000 C   0  0  0  0  0  0  0  0  0  0  0  0
    6.8610   -2.7114    0.0000 C   0  0  0  0  0  0  0  0  0  0  0  0
    6.3292   -2.0807    0.0000 C   0  0  2  0  0  0  0  0  0  0  0  0
    6.0489   -2.8566    0.0000 C   0  0  0  0  0  0  0  0  0  0  0  0
    4.1731   -1.7404    0.0000 C   0  0  2  0  0  0  0  0  0  0  0  0
    3.5218   -1.2340    0.0000 C   0  0  0  0  0  0  0  0  0  0  0  0
    2.8390   -1.6970    0.0000 C   0  0  0  0  0  0  0  0  0  0  0  0
    3.0683   -2.4895    0.0000 C   0  0  0  0  0  0  0  0  0  0  0  0
    2.5619   -3.1408    0.0000 O   0  0  0  0  0  0  0  0  0  0  0  0
  2  1  1  1  0  0  0
  2  3  1  0  0  0  0
  3  4  1  0  0  0  0
  5  4  1  1  0  0  0
  5  6  1  0  0  0  0
  6  7  1  6  0  0  0
  7  8  1  0  0  0  0
  8  9  2  0  0  0  0
  9 10  1  0  0  0  0
 10 11  1  0  0  0  0
 11 12  1  1  0  0  0
 11 13  1  0  0  0  0
 13 14  1  0  0  0  0
 14 15  1  0  0  0  0
  5 15  1  0  0  0  0
  9 15  1  0  0  0  0
 15 16  1  1  0  0  0
  6 17  1  0  0  0  0
  2 17  1  0  0  0  0
 17 18  1  1  0  0  0
 18 19  1  0  0  0  0
 19 20  1  0  0  0  0
  2 20  1  0  0  0  0
 20 21  2  0  0  0  0
M  END

> <ChembankId>
575070

> <SMILES>
C[C@@]12CC[C@H]3[C@@H](CC=C4C[C@@H](O)CC[C@]34C)[C@@H]2CCC1=O

> <InChI>
1/C19H28O2/c1-18-9-7-13(20)11-12(18)3-4-14-15-5-6-17(21)19(15,2)10-8-16(14)18/h3,13-16,20H,4-11H2,1-2H3/t13-,14+,15-,16+,18+,19+/m1/s1

$$$$
2997
  Marvin  11101114192D          

 43 45  0  0  0  0            999 V2000
   -6.3333   -0.1226    0.0000 C   0  0  0  0  0  0  0  0  0  0  0  0
   -5.5106   -0.1843    0.0000 O   0  0  0  0  0  0  0  0  0  0  0  0
   -5.1526   -0.9276    0.0000 C   0  0  0  0  0  0  0  0  0  0  0  0
   -4.3299   -0.9893    0.0000 C   0  0  0  0  0  0  0  0  0  0  0  0
   -3.9720   -1.7325    0.0000 C   0  0  0  0  0  0  0  0  0  0  0  0
   -4.4367   -2.4142    0.0000 C   0  0  0  0  0  0  0  0  0  0  0  0
   -5.2594   -2.3525    0.0000 C   0  0  0  0  0  0  0  0  0  0  0  0
   -5.7241   -3.0342    0.0000 O   0  0  0  0  0  0  0  0  0  0  0  0
   -6.5468   -2.9725    0.0000 C   0  0  0  0  0  0  0  0  0  0  0  0
   -5.6173   -1.6092    0.0000 C   0  0  0  0  0  0  0  0  0  0  0  0
   -6.4400   -1.5476    0.0000 O   0  0  0  0  0  0  0  0  0  0  0  0
   -6.9048   -2.2292    0.0000 C   0  0  0  0  0  0  0  0  0  0  0  0
   -3.1493   -1.7942    0.0000 C   0  0  0  0  0  0  0  0  0  0  0  0
   -2.7913   -2.5375    0.0000 O   0  0  0  0  0  0  0  0  0  0  0  0
   -2.6845   -1.1126    0.0000 O   0  0  0  0  0  0  0  0  0  0  0  0
   -1.8618   -1.1742    0.0000 C   0  0  0  0  0  0  0  0  0  0  0  0
   -1.3971   -0.4926    0.0000 C   0  0  0  0  0  0  0  0  0  0  0  0
   -0.5744   -0.5542    0.0000 C   0  0  0  0  0  0  0  0  0  0  0  0
   -0.1097    0.1274    0.0000 N   0  0  0  0  0  0  0  0  0  0  0  0
   -0.5222    0.8419    0.0000 C   0  0  0  0  0  0  0  0  0  0  0  0
   -0.2208    1.6099    0.0000 C   0  0  0  0  0  0  0  0  0  0  0  0
    0.5676    1.8530    0.0000 C   0  0  0  0  0  0  0  0  0  0  0  0
    1.2492    1.3883    0.0000 N   0  0  0  0  0  0  0  0  0  0  0  0
    1.9637    1.8008    0.0000 C   0  0  0  0  0  0  0  0  0  0  0  0
    2.6782    1.3883    0.0000 C   0  0  0  0  0  0  0  0  0  0  0  0
    3.3926    1.8008    0.0000 C   0  0  0  0  0  0  0  0  0  0  0  0
    4.1071    1.3883    0.0000 O   0  0  0  0  0  0  0  0  0  0  0  0
    4.8216    1.8008    0.0000 C   0  0  0  0  0  0  0  0  0  0  0  0
    4.8216    2.6258    0.0000 O   0  0  0  0  0  0  0  0  0  0  0  0
    5.5361    1.3883    0.0000 C   0  0  0  0  0  0  0  0  0  0  0  0
    6.2505    1.8008    0.0000 C   0  0  0  0  0  0  0  0  0  0  0  0
    6.9650    1.3883    0.0000 C   0  0  0  0  0  0  0  0  0  0  0  0
    7.6795    1.8008    0.0000 O   0  0  0  0  0  0  0  0  0  0  0  0
    8.3939    1.3883    0.0000 C   0  0  0  0  0  0  0  0  0  0  0  0
    6.9650    0.5633    0.0000 C   0  0  0  0  0  0  0  0  0  0  0  0
    7.6795    0.1508    0.0000 O   0  0  0  0  0  0  0  0  0  0  0  0
    8.3939    0.5633    0.0000 C   0  0  0  0  0  0  0  0  0  0  0  0
    6.2505    0.1508    0.0000 C   0  0  0  0  0  0  0  0  0  0  0  0
    6.2505   -0.6742    0.0000 O   0  0  0  0  0  0  0  0  0  0  0  0
    5.5361   -1.0867    0.0000 C   0  0  0  0  0  0  0  0  0  0  0  0
    5.5361    0.5633    0.0000 C   0  0  0  0  0  0  0  0  0  0  0  0
    1.3109    0.5656    0.0000 C   0  0  0  0  0  0  0  0  0  0  0  0
    0.7061    0.0045    0.0000 C   0  0  0  0  0  0  0  0  0  0  0  0
  1  2  1  0  0  0  0
  2  3  1  0  0  0  0
  3  4  4  0  0  0  0
  4  5  4  0  0  0  0
  5  6  4  0  0  0  0
  6  7  4  0  0  0  0
  7  8  1  0  0  0  0
  8  9  1  0  0  0  0
  7 10  4  0  0  0  0
  3 10  4  0  0  0  0
 10 11  1  0  0  0  0
 11 12  1  0  0  0  0
  5 13  1  0  0  0  0
 13 14  2  0  0  0  0
 13 15  1  0  0  0  0
 15 16  1  0  0  0  0
 16 17  1  0  0  0  0
 17 18  1  0  0  0  0
 18 19  1  0  0  0  0
 19 20  1  0  0  0  0
 20 21  1  0  0  0  0
 21 22  1  0  0  0  0
 22 23  1  0  0  0  0
 23 24  1  0  0  0  0
 24 25  1  0  0  0  0
 25 26  1  0  0  0  0
 26 27  1  0  0  0  0
 27 28  1  0  0  0  0
 28 29  2  0  0  0  0
 28 30  1  0  0  0  0
 30 31  4  0  0  0  0
 31 32  4  0  0  0  0
 32 33  1  0  0  0  0
 33 34  1  0  0  0  0
 32 35  4  0  0  0  0
 35 36  1  0  0  0  0
 36 37  1  0  0  0  0
 35 38  4  0  0  0  0
 38 39  1  0  0  0  0
 39 40  1  0  0  0  0
 38 41  4  0  0  0  0
 30 41  4  0  0  0  0
 23 42  1  0  0  0  0
 42 43  1  0  0  0  0
 19 43  1  0  0  0  0
M  END

> <ChembankId>
2997

> <SMILES>
COc1cc(cc(OC)c1OC)C(=O)OCCCN2CCCN(CCCOC(=O)c3cc(OC)c(OC)c(OC)c3)CC2

> <InChI>
1/C31H44N2O10/c1-36-24-18-22(19-25(37-2)28(24)40-5)30(34)42-16-8-12-32-10-7-11-33(15-14-32)13-9-17-43-31(35)23-20-26(38-3)29(41-6)27(21-23)39-4/h18-21H,7-17H2,1-6H3

$$$$
3855
  Marvin  11101114192D          

 18 17  0  0  0  0            999 V2000
    4.7586   -4.3974    0.0000 C   0  0  0  0  0  0  0  0  0  0  0  0
    5.4730   -3.9849    0.0000 N   0  3  0  0  0  0  0  0  0  0  0  0
    5.8855   -4.6993    0.0000 C   0  0  0  0  0  0  0  0  0  0  0  0
    5.0605   -3.2704    0.0000 C   0  0  0  0  0  0  0  0  0  0  0  0
    6.1875   -3.5724    0.0000 C   0  0  0  0  0  0  0  0  0  0  0  0
    6.9020   -3.9849    0.0000 C   0  0  0  0  0  0  0  0  0  0  0  0
    7.6164   -3.5724    0.0000 C   0  0  0  0  0  0  0  0  0  0  0  0
    8.3309   -3.9849    0.0000 C   0  0  0  0  0  0  0  0  0  0  0  0
    9.0454   -3.5724    0.0000 C   0  0  0  0  0  0  0  0  0  0  0  0
    9.7599   -3.9849    0.0000 C   0  0  0  0  0  0  0  0  0  0  0  0
   10.4743   -3.5724    0.0000 C   0  0  0  0  0  0  0  0  0  0  0  0
   11.1888   -3.9849    0.0000 C   0  0  0  0  0  0  0  0  0  0  0  0
   11.9033   -3.5724    0.0000 C   0  0  0  0  0  0  0  0  0  0  0  0
   12.6177   -3.9849    0.0000 C   0  0  0  0  0  0  0  0  0  0  0  0
   13.3322   -3.5724    0.0000 N   0  3  0  0  0  0  0  0  0  0  0  0
   14.0467   -3.1599    0.0000 C   0  0  0  0  0  0  0  0  0  0  0  0
   13.7447   -4.2868    0.0000 C   0  0  0  0  0  0  0  0  0  0  0  0
   12.9197   -2.8579    0.0000 C   0  0  0  0  0  0  0  0  0  0  0  0
  1  2  1  0  0  0  0
  2  3  1  0  0  0  0
  2  4  1  0  0  0  0
  2  5  1  0  0  0  0
  5  6  1  0  0  0  0
  6  7  1  0  0  0  0
  7  8  1  0  0  0  0
  8  9  1  0  0  0  0
  9 10  1  0  0  0  0
 10 11  1  0  0  0  0
 11 12  1  0  0  0  0
 12 13  1  0  0  0  0
 13 14  1  0  0  0  0
 14 15  1  0  0  0  0
 15 16  1  0  0  0  0
 15 17  1  0  0  0  0
 15 18  1  0  0  0  0
M  CHG  2   2   1  15   1
M  END

> <ChembankId>
3855

> <SMILES>
C[N+](C)(C)CCCCCCCCCC[N+](C)(C)C

> <InChI>
1/C16H38N2/c1-17(2,3)15-13-11-9-7-8-10-12-14-16-18(4,5)6/h7-16H2,1-6H3/q+2

$$$$
907285
  Marvin  11101114192D          

 45 52  0  0  1  0            999 V2000
   -0.2568   -5.2739    0.0000 C   0  0  0  0  0  0  0  0  0  0  0  0
   -0.7409   -4.6059    0.0000 C   0  0  0  0  0  0  0  0  0  0  0  0
   -0.4044   -3.8526    0.0000 C   0  0  0  0  0  0  0  0  0  0  0  0
   -1.5615   -4.6911    0.0000 C   0  0  1  0  0  0  0  0  0  0  0  0
   -1.5605   -3.8661    0.0000 N   0  0  0  0  0  0  0  0  0  0  0  0
   -0.8455   -3.4545    0.0000 C   0  0  0  0  0  0  0  0  0  0  0  0
   -0.0387   -3.6270    0.0000 O   0  0  0  0  0  0  0  0  0  0  0  0
   -0.8445   -2.6295    0.0000 C   0  0  2  0  0  0  0  0  0  0  0  0
   -0.1296   -2.2179    0.0000 C   0  0  0  0  0  0  0  0  0  0  0  0
   -0.1286   -1.3929    0.0000 C   0  0  1  0  0  0  0  0  0  0  0  0
   -0.8425   -0.9795    0.0000 C   0  0  1  0  0  0  0  0  0  0  0  0
   -0.8411   -0.1554    0.0000 C   0  0  0  0  0  0  0  0  0  0  0  0
   -0.1286    0.2571    0.0000 C   0  0  0  0  0  0  0  0  0  0  0  0
    0.1714    1.1143    0.0000 C   0  0  0  0  0  0  0  0  0  0  0  0
    0.9964    1.1143    0.0000 N   0  0  0  0  0  0  0  0  0  0  0  0
    1.3018    0.2571    0.0000 C   0  0  0  0  0  0  0  0  0  0  0  0
    2.0143   -0.1554    0.0000 C   0  0  0  0  0  0  0  0  0  0  0  0
    2.0143   -0.9804    0.0000 C   0  0  0  0  0  0  0  0  0  0  0  0
    1.3018   -1.3929    0.0000 C   0  0  0  0  0  0  0  0  0  0  0  0
    0.5839   -0.9804    0.0000 C   0  0  0  0  0  0  0  0  0  0  0  0
    0.5839   -0.1554    0.0000 C   0  0  0  0  0  0  0  0  0  0  0  0
   -1.5575   -1.3911    0.0000 N   0  0  0  0  0  0  0  0  0  0  0  0
   -2.2715   -0.9778    0.0000 C   0  0  0  0  0  0  0  0  0  0  0  0
   -1.5585   -2.2161    0.0000 C   0  0  0  0  0  0  0  0  0  0  0  0
   -1.3909   -5.4983    0.0000 O   0  0  0  0  0  0  0  0  0  0  0  0
   -2.1059   -5.9100    0.0000 C   0  0  1  0  0  0  0  0  0  0  0  0
   -1.4390   -6.3957    0.0000 O   0  0  0  0  0  0  0  0  0  0  0  0
   -2.2784   -6.7167    0.0000 C   0  0  2  0  0  0  0  0  0  0  0  0
   -1.7942   -7.3848    0.0000 C   0  0  0  0  0  0  0  0  0  0  0  0
   -2.2800   -8.0516    0.0000 C   0  0  0  0  0  0  0  0  0  0  0  0
   -3.0643   -7.7957    0.0000 C   0  0  0  0  0  0  0  0  0  0  0  0
   -3.0633   -6.9707    0.0000 N   0  0  0  0  0  0  0  0  0  0  0  0
   -3.6757   -6.4180    0.0000 C   0  0  0  0  0  0  0  0  0  0  0  0
   -4.4606   -6.6720    0.0000 O   0  0  0  0  0  0  0  0  0  0  0  0
   -3.5032   -5.6112    0.0000 C   0  0  2  0  0  0  0  0  0  0  0  0
   -4.1157   -5.0584    0.0000 C   0  0  0  0  0  0  0  0  0  0  0  0
   -4.9006   -5.3124    0.0000 C   0  0  0  0  0  0  0  0  0  0  0  0
   -5.0731   -6.1192    0.0000 C   0  0  0  0  0  0  0  0  0  0  0  0
   -5.8580   -6.3732    0.0000 C   0  0  0  0  0  0  0  0  0  0  0  0
   -6.4704   -5.8204    0.0000 C   0  0  0  0  0  0  0  0  0  0  0  0
   -6.2979   -5.0137    0.0000 C   0  0  0  0  0  0  0  0  0  0  0  0
   -5.5130   -4.7597    0.0000 C   0  0  0  0  0  0  0  0  0  0  0  0
   -2.7183   -5.3572    0.0000 N   0  0  0  0  0  0  0  0  0  0  0  0
   -2.3818   -4.6039    0.0000 C   0  0  0  0  0  0  0  0  0  0  0  0
   -2.7935   -3.8890    0.0000 O   0  0  0  0  0  0  0  0  0  0  0  0
  1  2  1  0  0  0  0
  2  3  1  0  0  0  0
  4  2  1  1  0  0  0
  4  5  1  6  0  0  0
  5  6  1  0  0  0  0
  6  7  2  0  0  0  0
  8  6  1  1  0  0  0
  8  9  1  0  0  0  0
 10  9  1  1  0  0  0
 10 11  1  0  0  0  0
 11 12  1  0  0  0  0
 12 13  1  0  0  0  0
 13 14  4  0  0  0  0
 14 15  4  0  0  0  0
 15 16  4  0  0  0  0
 16 17  4  0  0  0  0
 17 18  4  0  0  0  0
 18 19  4  0  0  0  0
 19 20  4  0  0  0  0
 10 20  1  0  0  0  0
 20 21  4  0  0  0  0
 13 21  4  0  0  0  0
 16 21  4  0  0  0  0
 11 22  1  6  0  0  0
 22 23  1  0  0  0  0
 22 24  1  0  0  0  0
  8 24  1  0  0  0  0
  4 25  1  0  0  0  0
 25 26  1  0  0  0  0
 26 27  1  6  0  0  0
 26 28  1  0  0  0  0
 28 29  1  0  0  0  0
 29 30  1  0  0  0  0
 30 31  1  0  0  0  0
 31 32  1  0  0  0  0
 28 32  1  6  0  0  0
 32 33  1  0  0  0  0
 33 34  2  0  0  0  0
 33 35  1  0  0  0  0
 35 36  1  6  0  0  0
 36 37  1  0  0  0  0
 37 38  4  0  0  0  0
 38 39  4  0  0  0  0
 39 40  4  0  0  0  0
 40 41  4  0  0  0  0
 41 42  4  0  0  0  0
 37 42  4  0  0  0  0
 35 43  1  0  0  0  0
 26 43  1  0  0  0  0
 43 44  1  0  0  0  0
  4 44  1  0  0  0  0
 44 45  2  0  0  0  0
M  STY  1   1 DAT
M  SAL   1  1  15
M  SDT   1 MRV_IMPLICIT_H                                        
M  SDD   1     0.0000    0.0000    DR    ALL  0       0  
M  SED   1 IMPL_H1
M  END

> <ChembankId>
907285

> <SMILES>
CC(C)[C@@]1(NC(=O)[C@@H]2C[C@H]3[C@@H](Cc4c[nH]c5cccc3c45)N(C)C2)O[C@@]6(O)[C@@H]7CCCN7C(=O)[C@H](Cc8ccccc8)N6C1=O

> <InChI>
1/C35H41N5O5/c1-20(2)34(37-31(41)23-16-25-24-11-7-12-26-30(24)22(18-36-26)17-27(25)38(3)19-23)33(43)40-28(15-21-9-5-4-6-10-21)32(42)39-14-8-13-29(39)35(40,44)45-34/h4-7,9-12,18,20,23,25,27-29,36,44H,8,13-17,19H2,1-3H3,(H,37,41)

$$$$
1677
  Marvin  11101114192D          

 13 13  0  0  0  0            999 V2000
    2.8579    0.8250    0.0000 C   0  0  0  0  0  0  0  0  0  0  0  0
    2.1434    1.2375    0.0000 C   0  0  0  0  0  0  0  0  0  0  0  0
    2.1434    2.0625    0.0000 C   0  0  0  0  0  0  0  0  0  0  0  0
    1.4289    0.8250    0.0000 C   0  0  0  0  0  0  0  0  0  0  0  0
    1.4289   -0.0000    0.0000 C   0  0  0  0  0  0  0  0  0  0  0  0
    0.7145   -0.4125    0.0000 C   0  0  0  0  0  0  0  0  0  0  0  0
    0.0000    0.0000    0.0000 C   0  0  0  0  0  0  0  0  0  0  0  0
    0.0000    0.8250    0.0000 C   0  0  0  0  0  0  0  0  0  0  0  0
   -0.7145    1.2375    0.0000 C   0  0  0  0  0  0  0  0  0  0  0  0
   -1.4289    0.8250    0.0000 C   0  0  0  0  0  0  0  0  0  0  0  0
   -0.7145    2.0625    0.0000 C   0  0  0  0  0  0  0  0  0  0  0  0
    0.7145    1.2375    0.0000 C   0  0  0  0  0  0  0  0  0  0  0  0
    0.7145    2.0625    0.0000 O   0  0  0  0  0  0  0  0  0  0  0  0
  1  2  1  0  0  0  0
  2  3  1  0  0  0  0
  2  4  1  0  0  0  0
  4  5  4  0  0  0  0
  5  6  4  0  0  0  0
  6  7  4  0  0  0  0
  7  8  4  0  0  0  0
  8  9  1  0  0  0  0
  9 10  1  0  0  0  0
  9 11  1  0  0  0  0
  8 12  4  0  0  0  0
  4 12  4  0  0  0  0
 12 13  1  0  0  0  0
M  END

> <ChembankId>
1677

> <SMILES>
CC(C)c1cccc(C(C)C)c1O

> <InChI>
1/C12H18O/c1-8(2)10-6-5-7-11(9(3)4)12(10)13/h5-9,13H,1-4H3

$$$$
1113307
  Marvin  11101114192D          

 16 16  0  0  0  0            999 V2000
    4.2868   -0.0000    0.0000 C   0  0  0  0  0  0  0  0  0  0  0  0
    3.5724   -0.4125    0.0000 C   0  0  0  0  0  0  0  0  0  0  0  0
    2.8579   -0.0000    0.0000 N   0  0  0  0  0  0  0  0  0  0  0  0
    2.8579    0.8250    0.0000 C   0  0  0  0  0  0  0  0  0  0  0  0
    2.1434    1.2375    0.0000 C   0  0  0  0  0  0  0  0  0  0  0  0
    2.1434   -0.4125    0.0000 C   0  0  0  0  0  0  0  0  0  0  0  0
    2.1434   -1.2375    0.0000 O   0  0  0  0  0  0  0  0  0  0  0  0
    1.4289   -0.0000    0.0000 C   0  0  0  0  0  0  0  0  0  0  0  0
    0.7145   -0.4125    0.0000 C   0  0  0  0  0  0  0  0  0  0  0  0
    0.0000   -0.0000    0.0000 C   0  0  0  0  0  0  0  0  0  0  0  0
    0.0000    0.8250    0.0000 C   0  0  0  0  0  0  0  0  0  0  0  0
   -0.7145    1.2375    0.0000 O   0  0  0  0  0  0  0  0  0  0  0  0
    0.7145    1.2375    0.0000 C   0  0  0  0  0  0  0  0  0  0  0  0
    0.7145    2.0625    0.0000 O   0  0  0  0  0  0  0  0  0  0  0  0
    1.4289    2.4750    0.0000 C   0  0  0  0  0  0  0  0  0  0  0  0
    1.4289    0.8250    0.0000 C   0  0  0  0  0  0  0  0  0  0  0  0
  1  2  1  0  0  0  0
  2  3  1  0  0  0  0
  3  4  1  0  0  0  0
  4  5  1  0  0  0  0
  3  6  1  0  0  0  0
  6  7  2  0  0  0  0
  6  8  1  0  0  0  0
  8  9  4  0  0  0  0
  9 10  4  0  0  0  0
 10 11  4  0  0  0  0
 11 12  1  0  0  0  0
 11 13  4  0  0  0  0
 13 14  1  0  0  0  0
 14 15  1  0  0  0  0
 13 16  4  0  0  0  0
  8 16  4  0  0  0  0
M  END

> <ChembankId>
1113307

> <SMILES>
CCN(CC)C(=O)c1ccc(O)c(OC)c1

> <InChI>
1/C12H17NO3/c1-4-13(5-2)12(15)9-6-7-10(14)11(8-9)16-3/h6-8,14H,4-5H2,1-3H3

$$$$
1789
  Marvin  11101114192D          

 22 23  0  0  1  0            999 V2000
    2.1434   -2.0625    0.0000 C   0  0  0  0  0  0  0  0  0  0  0  0
    2.8579   -1.6500    0.0000 N   0  0  0  0  0  0  0  0  0  0  0  0
    3.5724   -2.0625    0.0000 C   0  0  0  0  0  0  0  0  0  0  0  0
    4.2868   -1.6500    0.0000 C   0  0  0  0  0  0  0  0  0  0  0  0
    5.0013   -2.0625    0.0000 C   0  0  1  0  0  0  0  0  0  0  0  0
    5.7158   -1.6500    0.0000 O   0  0  0  0  0  0  0  0  0  0  0  0
    6.4302   -2.0625    0.0000 C   0  0  0  0  0  0  0  0  0  0  0  0
    7.1447   -1.6500    0.0000 C   0  0  0  0  0  0  0  0  0  0  0  0
    7.8592   -2.0625    0.0000 C   0  0  0  0  0  0  0  0  0  0  0  0
    7.8592   -2.8875    0.0000 C   0  0  0  0  0  0  0  0  0  0  0  0
    7.1447   -3.3000    0.0000 C   0  0  0  0  0  0  0  0  0  0  0  0
    6.4302   -2.8875    0.0000 C   0  0  0  0  0  0  0  0  0  0  0  0
    8.5737   -3.3000    0.0000 C   0  0  0  0  0  0  0  0  0  0  0  0
    9.2881   -3.7125    0.0000 F   0  0  0  0  0  0  0  0  0  0  0  0
    8.1612   -4.0145    0.0000 F   0  0  0  0  0  0  0  0  0  0  0  0
    8.9862   -2.5855    0.0000 F   0  0  0  0  0  0  0  0  0  0  0  0
    5.0013   -2.8875    0.0000 C   0  0  0  0  0  0  0  0  0  0  0  0
    5.7158   -3.3000    0.0000 C   0  0  0  0  0  0  0  0  0  0  0  0
    5.7158   -4.1250    0.0000 C   0  0  0  0  0  0  0  0  0  0  0  0
    5.0013   -4.5375    0.0000 C   0  0  0  0  0  0  0  0  0  0  0  0
    4.2868   -4.1250    0.0000 C   0  0  0  0  0  0  0  0  0  0  0  0
    4.2868   -3.3000    0.0000 C   0  0  0  0  0  0  0  0  0  0  0  0
  1  2  1  0  0  0  0
  2  3  1  0  0  0  0
  3  4  1  0  0  0  0
  4  5  1  0  0  0  0
  5  6  1  1  0  0  0
  6  7  1  0  0  0  0
  7  8  4  0  0  0  0
  8  9  4  0  0  0  0
  9 10  4  0  0  0  0
 10 11  4  0  0  0  0
 11 12  4  0  0  0  0
  7 12  4  0  0  0  0
 10 13  1  0  0  0  0
 13 14  1  0  0  0  0
 13 15  1  0  0  0  0
 13 16  1  0  0  0  0
  5 17  1  0  0  0  0
 17 18  4  0  0  0  0
 18 19  4  0  0  0  0
 19 20  4  0  0  0  0
 20 21  4  0  0  0  0
 21 22  4  0  0  0  0
 17 22  4  0  0  0  0
M  END

> <ChembankId>
1789

> <SMILES>
CNCC[C@@H](Oc1ccc(cc1)C(F)(F)F)c2ccccc2

> <InChI>
1/C17H18F3NO/c1-21-12-11-16(13-5-3-2-4-6-13)22-15-9-7-14(8-10-15)17(18,19)20/h2-10,16,21H,11-12H2,1H3

$$$$
23081
  Marvin  11101114192D          

 35 39  0  0  0  0            999 V2000
    8.6945    1.8414    0.0000 F   0  0  0  0  0  0  0  0  0  0  0  0
    7.8695    1.8414    0.0000 C   0  0  0  0  0  0  0  0  0  0  0  0
    7.4570    1.1270    0.0000 C   0  0  0  0  0  0  0  0  0  0  0  0
    6.6320    1.1270    0.0000 C   0  0  0  0  0  0  0  0  0  0  0  0
    6.2195    1.8414    0.0000 C   0  0  0  0  0  0  0  0  0  0  0  0
    6.6320    2.5559    0.0000 C   0  0  0  0  0  0  0  0  0  0  0  0
    7.4570    2.5559    0.0000 C   0  0  0  0  0  0  0  0  0  0  0  0
    5.3945    1.8414    0.0000 C   0  0  0  0  0  0  0  0  0  0  0  0
    4.9820    1.1270    0.0000 C   0  0  0  0  0  0  0  0  0  0  0  0
    4.1570    1.1270    0.0000 C   0  0  0  0  0  0  0  0  0  0  0  0
    3.7445    0.4125    0.0000 C   0  0  0  0  0  0  0  0  0  0  0  0
    2.9195    0.4125    0.0000 N   0  0  0  0  0  0  0  0  0  0  0  0
    2.5070   -0.3020    0.0000 C   0  0  0  0  0  0  0  0  0  0  0  0
    1.6820   -0.3020    0.0000 C   0  0  0  0  0  0  0  0  0  0  0  0
    1.2695    0.4125    0.0000 C   0  0  0  0  0  0  0  0  0  0  0  0
    1.6820    1.1270    0.0000 C   0  0  0  0  0  0  0  0  0  0  0  0
    2.5070    1.1270    0.0000 C   0  0  0  0  0  0  0  0  0  0  0  0
    0.7846   -0.2549    0.0000 N   0  0  0  0  0  0  0  0  0  0  0  0
    0.0000   -0.0000    0.0000 C   0  0  0  0  0  0  0  0  0  0  0  0
   -0.0000    0.8250    0.0000 N   0  0  0  0  0  0  0  0  0  0  0  0
    0.7846    1.0799    0.0000 C   0  0  0  0  0  0  0  0  0  0  0  0
    1.0396    1.8646    0.0000 O   0  0  0  0  0  0  0  0  0  0  0  0
    1.0396   -1.0396    0.0000 C   0  0  0  0  0  0  0  0  0  0  0  0
    1.8465   -1.2111    0.0000 C   0  0  0  0  0  0  0  0  0  0  0  0
    2.1015   -1.9957    0.0000 C   0  0  0  0  0  0  0  0  0  0  0  0
    1.5494   -2.6088    0.0000 C   0  0  0  0  0  0  0  0  0  0  0  0
    0.7425   -2.4373    0.0000 C   0  0  0  0  0  0  0  0  0  0  0  0
    0.4875   -1.6527    0.0000 C   0  0  0  0  0  0  0  0  0  0  0  0
    4.9820    2.5559    0.0000 C   0  0  0  0  0  0  0  0  0  0  0  0
    4.1570    2.5559    0.0000 C   0  0  0  0  0  0  0  0  0  0  0  0
    3.7445    3.2704    0.0000 C   0  0  0  0  0  0  0  0  0  0  0  0
    4.1570    3.9849    0.0000 C   0  0  0  0  0  0  0  0  0  0  0  0
    3.7445    4.6993    0.0000 F   0  0  0  0  0  0  0  0  0  0  0  0
    4.9820    3.9849    0.0000 C   0  0  0  0  0  0  0  0  0  0  0  0
    5.3945    3.2704    0.0000 C   0  0  0  0  0  0  0  0  0  0  0  0
  1  2  1  0  0  0  0
  2  3  4  0  0  0  0
  3  4  4  0  0  0  0
  4  5  4  0  0  0  0
  5  6  4  0  0  0  0
  6  7  4  0  0  0  0
  2  7  4  0  0  0  0
  5  8  1  0  0  0  0
  8  9  1  0  0  0  0
  9 10  1  0  0  0  0
 10 11  1  0  0  0  0
 11 12  1  0  0  0  0
 12 13  1  0  0  0  0
 13 14  1  0  0  0  0
 14 15  1  0  0  0  0
 15 16  1  0  0  0  0
 16 17  1  0  0  0  0
 12 17  1  0  0  0  0
 15 18  1  0  0  0  0
 18 19  1  0  0  0  0
 19 20  1  0  0  0  0
 20 21  1  0  0  0  0
 15 21  1  0  0  0  0
 21 22  2  0  0  0  0
 18 23  1  0  0  0  0
 23 24  4  0  0  0  0
 24 25  4  0  0  0  0
 25 26  4  0  0  0  0
 26 27  4  0  0  0  0
 27 28  4  0  0  0  0
 23 28  4  0  0  0  0
  8 29  1  0  0  0  0
 29 30  4  0  0  0  0
 30 31  4  0  0  0  0
 31 32  4  0  0  0  0
 32 33  1  0  0  0  0
 32 34  4  0  0  0  0
 34 35  4  0  0  0  0
 29 35  4  0  0  0  0
M  END

> <ChembankId>
23081

> <SMILES>
Fc1ccc(cc1)C(CCCN2CCC3(CC2)N(CNC3=O)c4ccccc4)c5ccc(F)cc5

> <InChI>
1/C29H31F2N3O/c30-24-12-8-22(9-13-24)27(23-10-14-25(31)15-11-23)7-4-18-33-19-16-29(17-20-33)28(35)32-21-34(29)26-5-2-1-3-6-26/h1-3,5-6,8-15,27H,4,7,16-21H2,(H,32,35)

$$$$
3368
  Marvin  11101114192D          

 15 15  0  0  0  0            999 V2000
   -2.8579   -1.6500    0.0000 N   0  0  0  0  0  0  0  0  0  0  0  0
   -2.1434   -2.0625    0.0000 C   0  0  0  0  0  0  0  0  0  0  0  0
   -2.1434   -2.8875    0.0000 N   0  0  0  0  0  0  0  0  0  0  0  0
   -1.4289   -1.6500    0.0000 N   0  0  0  0  0  0  0  0  0  0  0  0
   -0.7145   -2.0625    0.0000 C   0  0  0  0  0  0  0  0  0  0  0  0
   -0.7145   -2.8875    0.0000 O   0  0  0  0  0  0  0  0  0  0  0  0
    0.0000   -1.6500    0.0000 C   0  0  0  0  0  0  0  0  0  0  0  0
    0.7145   -2.0625    0.0000 C   0  0  0  0  0  0  0  0  0  0  0  0
    1.4289   -1.6500    0.0000 C   0  0  0  0  0  0  0  0  0  0  0  0
    1.4289   -0.8250    0.0000 Cl  0  0  0  0  0  0  0  0  0  0  0  0
    2.1434   -2.0625    0.0000 C   0  0  0  0  0  0  0  0  0  0  0  0
    2.1434   -2.8875    0.0000 C   0  0  0  0  0  0  0  0  0  0  0  0
    1.4289   -3.3000    0.0000 C   0  0  0  0  0  0  0  0  0  0  0  0
    0.7145   -2.8875    0.0000 C   0  0  0  0  0  0  0  0  0  0  0  0
    0.0000   -3.3000    0.0000 Cl  0  0  0  0  0  0  0  0  0  0  0  0
  1  2  1  0  0  0  0
  2  3  2  0  0  0  0
  2  4  1  0  0  0  0
  4  5  1  0  0  0  0
  5  6  2  0  0  0  0
  5  7  1  0  0  0  0
  7  8  1  0  0  0  0
  8  9  4  0  0  0  0
  9 10  1  0  0  0  0
  9 11  4  0  0  0  0
 11 12  4  0  0  0  0
 12 13  4  0  0  0  0
 13 14  4  0  0  0  0
  8 14  4  0  0  0  0
 14 15  1  0  0  0  0
M  END

> <ChembankId>
3368

> <SMILES>
NC(=N)NC(=O)Cc1c(Cl)cccc1Cl

> <InChI>
1/C9H9Cl2N3O/c10-6-2-1-3-7(11)5(6)4-8(15)14-9(12)13/h1-3H,4H2,(H4,12,13,14,15)

$$$$
2078
  Marvin  11101114192D          

 13 13  0  0  0  0            999 V2000
    2.1434   -2.8875    0.0000 C   0  0  0  0  0  0  0  0  0  0  0  0
    1.4289   -2.4750    0.0000 C   0  0  0  0  0  0  0  0  0  0  0  0
    1.4289   -1.6500    0.0000 C   0  0  0  0  0  0  0  0  0  0  0  0
    0.7145   -1.2375    0.0000 C   0  0  0  0  0  0  0  0  0  0  0  0
    0.7145   -0.4125    0.0000 C   0  0  0  0  0  0  0  0  0  0  0  0
   -0.0000    0.0000    0.0000 C   0  0  0  0  0  0  0  0  0  0  0  0
    0.0000    0.8250    0.0000 C   0  0  0  0  0  0  0  0  0  0  0  0
    0.7145    1.2375    0.0000 C   0  0  0  0  0  0  0  0  0  0  0  0
    1.4289    0.8250    0.0000 N   0  0  0  0  0  0  0  0  0  0  0  0
    1.4289    0.0000    0.0000 C   0  0  0  0  0  0  0  0  0  0  0  0
    0.7145    2.0625    0.0000 C   0  0  0  0  0  0  0  0  0  0  0  0
    0.0000    2.4750    0.0000 O   0  0  0  0  0  0  0  0  0  0  0  0
    1.4289    2.4750    0.0000 O   0  0  0  0  0  0  0  0  0  0  0  0
  1  2  1  0  0  0  0
  2  3  1  0  0  0  0
  3  4  1  0  0  0  0
  4  5  1  0  0  0  0
  5  6  4  0  0  0  0
  6  7  4  0  0  0  0
  7  8  4  0  0  0  0
  8  9  4  0  0  0  0
  9 10  4  0  0  0  0
  5 10  4  0  0  0  0
  8 11  1  0  0  0  0
 11 12  2  0  0  0  0
 11 13  1  0  0  0  0
M  END

> <ChembankId>
2078

> <SMILES>
CCCCc1ccc(nc1)C(=O)O

> <InChI>
1/C10H13NO2/c1-2-3-4-8-5-6-9(10(12)13)11-7-8/h5-7H,2-4H2,1H3,(H,12,13)

$$$$
1001939
  Marvin  11101114192D          

 30 33  0  0  0  0            999 V2000
   -2.8579    4.9500    0.0000 O   0  0  0  0  0  0  0  0  0  0  0  0
   -2.1434    4.5375    0.0000 C   0  0  0  0  0  0  0  0  0  0  0  0
   -1.4289    4.9500    0.0000 C   0  0  0  0  0  0  0  0  0  0  0  0
   -0.7145    4.5375    0.0000 N   0  0  0  0  0  0  0  0  0  0  0  0
   -0.0000    4.9500    0.0000 C   0  0  0  0  0  0  0  0  0  0  0  0
    0.7145    4.5375    0.0000 C   0  0  0  0  0  0  0  0  0  0  0  0
    0.7145    3.7125    0.0000 N   0  0  0  0  0  0  0  0  0  0  0  0
    1.4289    3.3000    0.0000 C   0  0  0  0  0  0  0  0  0  0  0  0
    1.4289    2.4750    0.0000 C   0  0  0  0  0  0  0  0  0  0  0  0
    2.1434    2.0625    0.0000 C   0  0  0  0  0  0  0  0  0  0  0  0
    2.1434    1.2375    0.0000 C   0  0  0  0  0  0  0  0  0  0  0  0
    2.8579    0.8250    0.0000 C   0  0  0  0  0  0  0  0  0  0  0  0
    3.5724    1.2375    0.0000 C   0  0  0  0  0  0  0  0  0  0  0  0
    4.2868    0.8250    0.0000 C   0  0  0  0  0  0  0  0  0  0  0  0
    4.2868   -0.0000    0.0000 C   0  0  0  0  0  0  0  0  0  0  0  0
    3.5724   -0.4125    0.0000 C   0  0  0  0  0  0  0  0  0  0  0  0
    2.8579    0.0000    0.0000 C   0  0  0  0  0  0  0  0  0  0  0  0
    2.1434   -0.4125    0.0000 S   0  0  0  0  0  0  0  0  0  0  0  0
    1.4289    0.0000    0.0000 C   0  0  0  0  0  0  0  0  0  0  0  0
    0.7145   -0.4125    0.0000 C   0  0  0  0  0  0  0  0  0  0  0  0
    0.0000    0.0000    0.0000 C   0  0  0  0  0  0  0  0  0  0  0  0
    0.0000    0.8250    0.0000 C   0  0  0  0  0  0  0  0  0  0  0  0
    0.7145    1.2375    0.0000 C   0  0  0  0  0  0  0  0  0  0  0  0
    1.4289    0.8250    0.0000 C   0  0  0  0  0  0  0  0  0  0  0  0
   -0.7145    1.2375    0.0000 C   0  0  0  0  0  0  0  0  0  0  0  0
   -1.4289    1.6500    0.0000 F   0  0  0  0  0  0  0  0  0  0  0  0
   -0.3020    1.9520    0.0000 F   0  0  0  0  0  0  0  0  0  0  0  0
   -1.1270    0.5230    0.0000 F   0  0  0  0  0  0  0  0  0  0  0  0
   -0.0000    3.3000    0.0000 C   0  0  0  0  0  0  0  0  0  0  0  0
   -0.7145    3.7125    0.0000 C   0  0  0  0  0  0  0  0  0  0  0  0
  1  2  1  0  0  0  0
  2  3  1  0  0  0  0
  3  4  1  0  0  0  0
  4  5  1  0  0  0  0
  5  6  1  0  0  0  0
  6  7  1  0  0  0  0
  7  8  1  0  0  0  0
  8  9  1  0  0  0  0
  9 10  1  0  0  0  0
 10 11  2  0  0  0  0
 11 12  1  0  0  0  0
 12 13  4  0  0  0  0
 13 14  4  0  0  0  0
 14 15  4  0  0  0  0
 15 16  4  0  0  0  0
 16 17  4  0  0  0  0
 12 17  4  0  0  0  0
 17 18  1  0  0  0  0
 18 19  1  0  0  0  0
 19 20  4  0  0  0  0
 20 21  4  0  0  0  0
 21 22  4  0  0  0  0
 22 23  4  0  0  0  0
 23 24  4  0  0  0  0
 11 24  1  0  0  0  0
 19 24  4  0  0  0  0
 22 25  1  0  0  0  0
 25 26  1  0  0  0  0
 25 27  1  0  0  0  0
 25 28  1  0  0  0  0
  7 29  1  0  0  0  0
 29 30  1  0  0  0  0
  4 30  1  0  0  0  0
M  END

> <ChembankId>
1001939

> <SMILES>
OCCN1CCN(CC/C=C\2/c3ccccc3Sc4ccc(cc24)C(F)(F)F)CC1

> <InChI>
1/C23H25F3N2OS/c24-23(25,26)17-7-8-22-20(16-17)18(19-4-1-2-6-21(19)30-22)5-3-9-27-10-12-28(13-11-27)14-15-29/h1-2,4-8,16,29H,3,9-15H2

$$$$
1670
  Marvin  11101114192D          

 18 19  0  0  0  0            999 V2000
   -1.9237    5.8874    0.0000 N   0  0  0  0  0  0  0  0  0  0  0  0
   -2.4757    5.2743    0.0000 C   0  0  0  0  0  0  0  0  0  0  0  0
   -2.2208    4.4897    0.0000 N   0  0  0  0  0  0  0  0  0  0  0  0
   -2.7728    3.8766    0.0000 C   0  0  0  0  0  0  0  0  0  0  0  0
   -2.6866    3.0561    0.0000 N   0  0  0  0  0  0  0  0  0  0  0  0
   -1.9721    2.6436    0.0000 C   0  0  0  0  0  0  0  0  0  0  0  0
   -1.9721    1.8186    0.0000 O   0  0  0  0  0  0  0  0  0  0  0  0
   -1.2576    1.4061    0.0000 C   0  0  0  0  0  0  0  0  0  0  0  0
   -1.2576    0.5811    0.0000 C   0  0  0  0  0  0  0  0  0  0  0  0
   -0.5432    0.1686    0.0000 O   0  0  0  0  0  0  0  0  0  0  0  0
   -0.5432    1.8186    0.0000 C   0  0  0  0  0  0  0  0  0  0  0  0
    0.1713    1.4061    0.0000 O   0  0  0  0  0  0  0  0  0  0  0  0
   -3.4402    2.7205    0.0000 C   0  0  0  0  0  0  0  0  0  0  0  0
   -3.9923    3.3336    0.0000 N   0  0  0  0  0  0  0  0  0  0  0  0
   -3.5798    4.0481    0.0000 C   0  0  0  0  0  0  0  0  0  0  0  0
   -3.8347    4.8327    0.0000 C   0  0  0  0  0  0  0  0  0  0  0  0
   -4.6417    5.0043    0.0000 O   0  0  0  0  0  0  0  0  0  0  0  0
   -3.2827    5.4458    0.0000 N   0  0  0  0  0  0  0  0  0  0  0  0
  1  2  1  0  0  0  0
  2  3  4  0  0  0  0
  3  4  4  0  0  0  0
  4  5  4  0  0  0  0
  5  6  1  0  0  0  0
  6  7  1  0  0  0  0
  7  8  1  0  0  0  0
  8  9  1  0  0  0  0
  9 10  1  0  0  0  0
  8 11  1  0  0  0  0
 11 12  1  0  0  0  0
  5 13  4  0  0  0  0
 13 14  4  0  0  0  0
 14 15  4  0  0  0  0
  4 15  4  0  0  0  0
 15 16  4  0  0  0  0
 16 17  2  0  0  0  0
 16 18  4  0  0  0  0
  2 18  4  0  0  0  0
M  STY  1   1 DAT
M  SAL   1  1  18
M  SDT   1 MRV_IMPLICIT_H                                        
M  SDD   1     0.0000    0.0000    DR    ALL  0       0  
M  SED   1 IMPL_H1
M  END

> <ChembankId>
1670

> <SMILES>
Nc1nc2n(COC(CO)CO)cnc2c(=O)[nH]1

> <InChI>
1/C9H13N5O4/c10-9-12-7-6(8(17)13-9)11-3-14(7)4-18-5(1-15)2-16/h3,5,15-16H,1-2,4H2,(H3,10,12,13,17)

$$$$
907335
  Marvin  11101114192D          

 30 33  0  0  0  0            999 V2000
   -2.4673   -4.2044    0.0000 C   0  0  0  0  0  0  0  0  0  0  0  0
   -2.9976   -4.8364    0.0000 N   0  3  0  0  0  0  0  0  0  0  0  0
   -3.5279   -4.2044    0.0000 C   0  0  0  0  0  0  0  0  0  0  0  0
   -2.2832   -5.2489    0.0000 C   0  0  0  0  0  0  0  0  0  0  0  0
   -2.2832   -6.0739    0.0000 C   0  0  0  0  0  0  0  0  0  0  0  0
   -2.9976   -6.4864    0.0000 O   0  0  0  0  0  0  0  0  0  0  0  0
   -3.7121   -6.0739    0.0000 C   0  0  0  0  0  0  0  0  0  0  0  0
   -3.9943   -6.8492    0.0000 O   0  0  0  0  0  0  0  0  0  0  0  0
   -3.7121   -5.2489    0.0000 C   0  0  0  0  0  0  0  0  0  0  0  0
   -4.5246   -5.9306    0.0000 C   0  0  0  0  0  0  0  0  0  0  0  0
   -5.0549   -6.5626    0.0000 C   0  0  0  0  0  0  0  0  0  0  0  0
   -5.8673   -6.4194    0.0000 C   0  0  0  0  0  0  0  0  0  0  0  0
   -6.1495   -5.6441    0.0000 C   0  0  0  0  0  0  0  0  0  0  0  0
   -5.6192   -5.0121    0.0000 C   0  0  0  0  0  0  0  0  0  0  0  0
   -4.8067   -5.1554    0.0000 C   0  0  0  0  0  0  0  0  0  0  0  0
   -6.9620   -5.5009    0.0000 C   0  0  0  0  0  0  0  0  0  0  0  0
   -7.4923   -6.1329    0.0000 C   0  0  0  0  0  0  0  0  0  0  0  0
   -8.3047   -5.9896    0.0000 C   0  0  0  0  0  0  0  0  0  0  0  0
   -8.5869   -5.2143    0.0000 C   0  0  0  0  0  0  0  0  0  0  0  0
   -8.0566   -4.5824    0.0000 C   0  0  0  0  0  0  0  0  0  0  0  0
   -7.2441   -4.7256    0.0000 C   0  0  0  0  0  0  0  0  0  0  0  0
   -9.3994   -5.0711    0.0000 C   0  0  0  0  0  0  0  0  0  0  0  0
   -9.1172   -4.2958    0.0000 O   0  0  0  0  0  0  0  0  0  0  0  0
   -9.3994   -5.8961    0.0000 C   0  0  0  0  0  0  0  0  0  0  0  0
  -10.1138   -6.3086    0.0000 N   0  3  0  0  0  0  0  0  0  0  0  0
   -9.5835   -6.9406    0.0000 C   0  0  0  0  0  0  0  0  0  0  0  0
  -10.6441   -6.9406    0.0000 C   0  0  0  0  0  0  0  0  0  0  0  0
  -10.8283   -5.8961    0.0000 C   0  0  0  0  0  0  0  0  0  0  0  0
  -10.8283   -5.0711    0.0000 C   0  0  0  0  0  0  0  0  0  0  0  0
  -10.1138   -4.6586    0.0000 O   0  0  0  0  0  0  0  0  0  0  0  0
  1  2  1  0  0  0  0
  2  3  1  0  0  0  0
  2  4  1  0  0  0  0
  4  5  1  0  0  0  0
  5  6  1  0  0  0  0
  6  7  1  0  0  0  0
  7  8  1  0  0  0  0
  7  9  1  0  0  0  0
  2  9  1  0  0  0  0
  7 10  1  0  0  0  0
 10 11  4  0  0  0  0
 11 12  4  0  0  0  0
 12 13  4  0  0  0  0
 13 14  4  0  0  0  0
 14 15  4  0  0  0  0
 10 15  4  0  0  0  0
 13 16  1  0  0  0  0
 16 17  4  0  0  0  0
 17 18  4  0  0  0  0
 18 19  4  0  0  0  0
 19 20  4  0  0  0  0
 20 21  4  0  0  0  0
 16 21  4  0  0  0  0
 19 22  1  0  0  0  0
 22 23  1  0  0  0  0
 22 24  1  0  0  0  0
 24 25  1  0  0  0  0
 25 26  1  0  0  0  0
 25 27  1  0  0  0  0
 25 28  1  0  0  0  0
 28 29  1  0  0  0  0
 29 30  1  0  0  0  0
 22 30  1  0  0  0  0
M  CHG  2   2   1  25   1
M  END

> <ChembankId>
907335

> <SMILES>
C[N+]1(C)CCOC(O)(C1)c2ccc(cc2)c3ccc(cc3)C4(O)C[N+](C)(C)CCO4

> <InChI>
1/C24H34N2O4/c1-25(2)13-15-29-23(27,17-25)21-9-5-19(6-10-21)20-7-11-22(12-8-20)24(28)18-26(3,4)14-16-30-24/h5-12,27-28H,13-18H2,1-4H3/q+2

$$$$
1764
  Marvin  11101114192D          

 12 12  0  0  0  0            999 V2000
    2.0572    1.7262    0.0000 N   0  0  0  0  0  0  0  0  0  0  0  0
    1.2448    1.8695    0.0000 C   0  0  0  0  0  0  0  0  0  0  0  0
    0.7145    1.2375    0.0000 C   0  0  0  0  0  0  0  0  0  0  0  0
    0.1842    1.8695    0.0000 C   0  0  0  0  0  0  0  0  0  0  0  0
    0.4663    2.6447    0.0000 C   0  0  0  0  0  0  0  0  0  0  0  0
   -0.0640    3.2767    0.0000 O   0  0  0  0  0  0  0  0  0  0  0  0
    1.2788    2.7880    0.0000 O   0  0  0  0  0  0  0  0  0  0  0  0
    1.4289    0.8250    0.0000 C   0  0  0  0  0  0  0  0  0  0  0  0
    1.4289    0.0000    0.0000 C   0  0  0  0  0  0  0  0  0  0  0  0
    0.7145   -0.4125    0.0000 C   0  0  0  0  0  0  0  0  0  0  0  0
    0.0000   -0.0000    0.0000 C   0  0  0  0  0  0  0  0  0  0  0  0
   -0.0000    0.8250    0.0000 C   0  0  0  0  0  0  0  0  0  0  0  0
  1  2  1  0  0  0  0
  2  3  1  0  0  0  0
  3  4  1  0  0  0  0
  4  5  1  0  0  0  0
  5  6  2  0  0  0  0
  5  7  1  0  0  0  0
  3  8  1  0  0  0  0
  8  9  1  0  0  0  0
  9 10  1  0  0  0  0
 10 11  1  0  0  0  0
 11 12  1  0  0  0  0
  3 12  1  0  0  0  0
M  END

> <ChembankId>
1764

> <SMILES>
NCC1(CC(=O)O)CCCCC1

> <InChI>
1/C9H17NO2/c10-7-9(6-8(11)12)4-2-1-3-5-9/h1-7,10H2,(H,11,12)

$$$$
3060173
  Marvin  11101114192D          

 12 12  0  0  0  0            999 V2000
    4.2868   -0.0000    0.0000 N   0  0  0  0  0  0  0  0  0  0  0  0
    3.5724   -0.4125    0.0000 C   0  0  0  0  0  0  0  0  0  0  0  0
    3.5724   -1.2375    0.0000 N   0  0  0  0  0  0  0  0  0  0  0  0
    2.8579   -0.0000    0.0000 N   0  0  0  0  0  0  0  0  0  0  0  0
    2.1434   -0.4125    0.0000 C   0  0  0  0  0  0  0  0  0  0  0  0
    1.4289   -0.0000    0.0000 C   0  0  0  0  0  0  0  0  0  0  0  0
    0.7145   -0.4125    0.0000 C   0  0  0  0  0  0  0  0  0  0  0  0
    0.0000   -0.0000    0.0000 C   0  0  0  0  0  0  0  0  0  0  0  0
    0.0000    0.8250    0.0000 C   0  0  0  0  0  0  0  0  0  0  0  0
    0.7145    1.2375    0.0000 C   0  0  0  0  0  0  0  0  0  0  0  0
    0.7145    2.0625    0.0000 I   0  0  0  0  0  0  0  0  0  0  0  0
    1.4289    0.8250    0.0000 C   0  0  0  0  0  0  0  0  0  0  0  0
  1  2  1  0  0  0  0
  2  3  2  0  0  0  0
  2  4  1  0  0  0  0
  4  5  1  0  0  0  0
  5  6  1  0  0  0  0
  6  7  4  0  0  0  0
  7  8  4  0  0  0  0
  8  9  4  0  0  0  0
  9 10  4  0  0  0  0
 10 11  1  0  0  0  0
 10 12  4  0  0  0  0
  6 12  4  0  0  0  0
M  END

> <ChembankId>
3060173

> <SMILES>
NC(=N)NCc1cccc(I)c1

> <InChI>
1/C8H10IN3/c9-7-3-1-2-6(4-7)5-12-8(10)11/h1-4H,5H2,(H4,10,11,12)

$$$$
1472
  Marvin  11101114192D          

 15 15  0  0  1  0            999 V2000
    1.4289   -2.4750    0.0000 C   0  0  0  0  0  0  0  0  0  0  0  0
    1.4289   -1.6500    0.0000 C   0  0  0  0  0  0  0  0  0  0  0  0
    2.1434   -1.2375    0.0000 C   0  0  0  0  0  0  0  0  0  0  0  0
    0.7145   -1.2375    0.0000 C   0  0  0  0  0  0  0  0  0  0  0  0
    0.7145   -0.4125    0.0000 C   0  0  0  0  0  0  0  0  0  0  0  0
   -0.0000    0.0000    0.0000 C   0  0  0  0  0  0  0  0  0  0  0  0
    0.0000    0.8250    0.0000 C   0  0  0  0  0  0  0  0  0  0  0  0
    0.7145    1.2375    0.0000 C   0  0  0  0  0  0  0  0  0  0  0  0
    1.4289    0.8250    0.0000 C   0  0  0  0  0  0  0  0  0  0  0  0
    1.4289    0.0000    0.0000 C   0  0  0  0  0  0  0  0  0  0  0  0
    0.7145    2.0625    0.0000 C   0  0  2  0  0  0  0  0  0  0  0  0
    0.0000    2.4750    0.0000 C   0  0  0  0  0  0  0  0  0  0  0  0
    1.4289    2.4750    0.0000 C   0  0  0  0  0  0  0  0  0  0  0  0
    1.4289    3.3000    0.0000 O   0  0  0  0  0  0  0  0  0  0  0  0
    2.1434    2.0625    0.0000 O   0  0  0  0  0  0  0  0  0  0  0  0
  1  2  1  0  0  0  0
  2  3  1  0  0  0  0
  2  4  1  0  0  0  0
  4  5  1  0  0  0  0
  5  6  4  0  0  0  0
  6  7  4  0  0  0  0
  7  8  4  0  0  0  0
  8  9  4  0  0  0  0
  9 10  4  0  0  0  0
  5 10  4  0  0  0  0
  8 11  1  0  0  0  0
 11 12  1  6  0  0  0
 11 13  1  0  0  0  0
 13 14  2  0  0  0  0
 13 15  1  0  0  0  0
M  END

> <ChembankId>
1472

> <SMILES>
CC(C)Cc1ccc(cc1)[C@H](C)C(=O)O

> <InChI>
1/C13H18O2/c1-9(2)8-11-4-6-12(7-5-11)10(3)13(14)15/h4-7,9-10H,8H2,1-3H3,(H,14,15)

$$$$
1874
  Marvin  11101114192D          

 12 13  0  0  0  0            999 V2000
    1.4289   -2.4750    0.0000 O   0  0  0  0  0  0  0  0  0  0  0  0
    1.4289   -1.6500    0.0000 C   0  0  0  0  0  0  0  0  0  0  0  0
    0.7145   -1.2375    0.0000 C   0  0  0  0  0  0  0  0  0  0  0  0
    0.7145   -0.4125    0.0000 C   0  0  0  0  0  0  0  0  0  0  0  0
    1.4289    0.0000    0.0000 C   0  0  0  0  0  0  0  0  0  0  0  0
    2.1434   -0.4125    0.0000 C   0  0  0  0  0  0  0  0  0  0  0  0
    2.8579    0.0000    0.0000 C   0  0  0  0  0  0  0  0  0  0  0  0
    2.8579    0.8250    0.0000 O   0  0  0  0  0  0  0  0  0  0  0  0
    3.5724   -0.4125    0.0000 N   0  0  0  0  0  0  0  0  0  0  0  0
    3.5724   -1.2375    0.0000 C   0  0  0  0  0  0  0  0  0  0  0  0
    2.8579   -1.6500    0.0000 C   0  0  0  0  0  0  0  0  0  0  0  0
    2.1434   -1.2375    0.0000 C   0  0  0  0  0  0  0  0  0  0  0  0
  1  2  1  0  0  0  0
  2  3  4  0  0  0  0
  3  4  4  0  0  0  0
  4  5  4  0  0  0  0
  5  6  4  0  0  0  0
  6  7  4  0  0  0  0
  7  8  1  0  0  0  0
  7  9  4  0  0  0  0
  9 10  4  0  0  0  0
 10 11  4  0  0  0  0
 11 12  4  0  0  0  0
  2 12  4  0  0  0  0
  6 12  4  0  0  0  0
M  END

> <ChembankId>
1874

> <SMILES>
Oc1cccc2c(O)nccc12

> <InChI>
1/C9H7NO2/c11-8-3-1-2-7-6(8)4-5-10-9(7)12/h1-5,11H,(H,10,12)

$$$$
4338
  Marvin  11101114192D          

 17 17  0  0  0  0            999 V2000
    0.0000   -3.3000    0.0000 C   0  0  0  0  0  0  0  0  0  0  0  0
   -0.7145   -2.8875    0.0000 C   0  0  0  0  0  0  0  0  0  0  0  0
   -0.7145   -2.0625    0.0000 C   0  0  0  0  0  0  0  0  0  0  0  0
   -1.4289   -1.6500    0.0000 N   0  0  0  0  0  0  0  0  0  0  0  0
   -2.1434   -2.0625    0.0000 C   0  0  0  0  0  0  0  0  0  0  0  0
   -2.8579   -1.6500    0.0000 C   0  0  0  0  0  0  0  0  0  0  0  0
   -2.1434   -2.8875    0.0000 C   0  0  0  0  0  0  0  0  0  0  0  0
    0.0000   -1.6500    0.0000 C   0  0  0  0  0  0  0  0  0  0  0  0
    0.0000   -0.8250    0.0000 O   0  0  0  0  0  0  0  0  0  0  0  0
    0.7145   -2.0625    0.0000 C   0  0  0  0  0  0  0  0  0  0  0  0
    1.4289   -1.6500    0.0000 C   0  0  0  0  0  0  0  0  0  0  0  0
    2.1434   -2.0625    0.0000 C   0  0  0  0  0  0  0  0  0  0  0  0
    2.1434   -2.8875    0.0000 C   0  0  0  0  0  0  0  0  0  0  0  0
    2.8579   -3.3000    0.0000 O   0  0  0  0  0  0  0  0  0  0  0  0
    1.4289   -3.3000    0.0000 C   0  0  0  0  0  0  0  0  0  0  0  0
    1.4289   -4.1250    0.0000 O   0  0  0  0  0  0  0  0  0  0  0  0
    0.7145   -2.8875    0.0000 C   0  0  0  0  0  0  0  0  0  0  0  0
  1  2  1  0  0  0  0
  2  3  1  0  0  0  0
  3  4  1  0  0  0  0
  4  5  1  0  0  0  0
  5  6  1  0  0  0  0
  5  7  1  0  0  0  0
  3  8  1  0  0  0  0
  8  9  1  0  0  0  0
  8 10  1  0  0  0  0
 10 11  4  0  0  0  0
 11 12  4  0  0  0  0
 12 13  4  0  0  0  0
 13 14  1  0  0  0  0
 13 15  4  0  0  0  0
 15 16  1  0  0  0  0
 15 17  4  0  0  0  0
 10 17  4  0  0  0  0
M  END

> <ChembankId>
4338

> <SMILES>
CCC(NC(C)C)C(O)c1ccc(O)c(O)c1

> <InChI>
1/C13H21NO3/c1-4-10(14-8(2)3)13(17)9-5-6-11(15)12(16)7-9/h5-8,10,13-17H,4H2,1-3H3

$$$$
1666
  Marvin  11101114192D          

 16 17  0  0  0  0            999 V2000
    0.7145   -0.4125    0.0000 C   0  0  0  0  0  0  0  0  0  0  0  0
    0.7145   -1.2375    0.0000 C   0  0  0  0  0  0  0  0  0  0  0  0
    1.4289   -1.6500    0.0000 N   0  0  0  0  0  0  0  0  0  0  0  0
    1.4289   -2.4750    0.0000 C   0  0  0  0  0  0  0  0  0  0  0  0
    2.1434   -2.8875    0.0000 O   0  0  0  0  0  0  0  0  0  0  0  0
    0.7145   -2.8875    0.0000 C   0  0  0  0  0  0  0  0  0  0  0  0
    0.7145   -3.7125    0.0000 C   0  0  0  0  0  0  0  0  0  0  0  0
    0.7145   -4.5375    0.0000 N   0  0  0  0  0  0  0  0  0  0  0  0
    0.0000   -2.4750    0.0000 C   0  0  0  0  0  0  0  0  0  0  0  0
    0.0000   -1.6500    0.0000 C   0  0  0  0  0  0  0  0  0  0  0  0
   -0.7145   -1.2375    0.0000 C   0  0  0  0  0  0  0  0  0  0  0  0
   -1.4289   -1.6500    0.0000 C   0  0  0  0  0  0  0  0  0  0  0  0
   -2.1434   -1.2375    0.0000 C   0  0  0  0  0  0  0  0  0  0  0  0
   -2.1434   -0.4125    0.0000 N   0  0  0  0  0  0  0  0  0  0  0  0
   -1.4289   -0.0000    0.0000 C   0  0  0  0  0  0  0  0  0  0  0  0
   -0.7145   -0.4125    0.0000 C   0  0  0  0  0  0  0  0  0  0  0  0
  1  2  1  0  0  0  0
  2  3  4  0  0  0  0
  3  4  4  0  0  0  0
  4  5  2  0  0  0  0
  4  6  4  0  0  0  0
  6  7  1  0  0  0  0
  7  8  3  0  0  0  0
  6  9  4  0  0  0  0
  9 10  4  0  0  0  0
  2 10  4  0  0  0  0
 10 11  1  0  0  0  0
 11 12  4  0  0  0  0
 12 13  4  0  0  0  0
 13 14  4  0  0  0  0
 14 15  4  0  0  0  0
 15 16  4  0  0  0  0
 11 16  4  0  0  0  0
M  STY  1   1 DAT
M  SAL   1  1   3
M  SDT   1 MRV_IMPLICIT_H                                        
M  SDD   1     0.0000    0.0000    DR    ALL  0       0  
M  SED   1 IMPL_H1
M  END

> <ChembankId>
1666

> <SMILES>
Cc1[nH]c(=O)c(C#N)cc1c2ccncc2

> <InChI>
1/C12H9N3O/c1-8-11(9-2-4-14-5-3-9)6-10(7-13)12(16)15-8/h2-6H,1H3,(H,15,16)

$$$$
2203
  Marvin  11101114192D          

 17 17  0  0  0  0            999 V2000
    2.1434    0.4125    0.0000 C   0  0  0  0  0  0  0  0  0  0  0  0
    2.1434   -0.4125    0.0000 N   0  0  0  0  0  0  0  0  0  0  0  0
    1.4289   -0.8250    0.0000 C   0  0  0  0  0  0  0  0  0  0  0  0
    0.7145   -0.4125    0.0000 C   0  0  0  0  0  0  0  0  0  0  0  0
    0.0000   -0.8250    0.0000 C   0  0  0  0  0  0  0  0  0  0  0  0
   -0.7145   -0.4125    0.0000 O   0  0  0  0  0  0  0  0  0  0  0  0
   -1.4289   -0.8250    0.0000 C   0  0  0  0  0  0  0  0  0  0  0  0
   -1.4289   -1.6500    0.0000 C   0  0  0  0  0  0  0  0  0  0  0  0
   -2.1434   -2.0625    0.0000 C   0  0  0  0  0  0  0  0  0  0  0  0
   -2.8579   -1.6500    0.0000 C   0  0  0  0  0  0  0  0  0  0  0  0
   -3.5724   -2.0625    0.0000 Cl  0  0  0  0  0  0  0  0  0  0  0  0
   -2.8579   -0.8250    0.0000 C   0  0  0  0  0  0  0  0  0  0  0  0
   -2.1434   -0.4125    0.0000 C   0  0  0  0  0  0  0  0  0  0  0  0
   -2.1434    0.4125    0.0000 Cl  0  0  0  0  0  0  0  0  0  0  0  0
    2.8579   -0.8250    0.0000 C   0  0  0  0  0  0  0  0  0  0  0  0
    3.5724   -0.4125    0.0000 C   0  0  0  0  0  0  0  0  0  0  0  0
    4.2868   -0.0000    0.0000 C   0  0  0  0  0  0  0  0  0  0  0  0
  1  2  1  0  0  0  0
  2  3  1  0  0  0  0
  3  4  1  0  0  0  0
  4  5  1  0  0  0  0
  5  6  1  0  0  0  0
  6  7  1  0  0  0  0
  7  8  4  0  0  0  0
  8  9  4  0  0  0  0
  9 10  4  0  0  0  0
 10 11  1  0  0  0  0
 10 12  4  0  0  0  0
 12 13  4  0  0  0  0
  7 13  4  0  0  0  0
 13 14  1  0  0  0  0
  2 15  1  0  0  0  0
 15 16  1  0  0  0  0
 16 17  3  0  0  0  0
M  END

> <ChembankId>
2203

> <SMILES>
CN(CCCOc1ccc(Cl)cc1Cl)CC#C

> <InChI>
1/C13H15Cl2NO/c1-3-7-16(2)8-4-9-17-13-6-5-11(14)10-12(13)15/h1,5-6,10H,4,7-9H2,2H3

$$$$
3169
  Marvin  11101114192D          

 25 28  0  0  1  0            999 V2000
    0.5819   -5.9321    0.0000 C   0  0  0  0  0  0  0  0  0  0  0  0
    0.5829   -5.1071    0.0000 C   0  0  0  0  0  0  0  0  0  0  0  0
   -0.1310   -4.6937    0.0000 N   0  0  0  0  0  0  0  0  0  0  0  0
   -0.8460   -5.1054    0.0000 C   0  0  0  0  0  0  0  0  0  0  0  0
   -1.5600   -4.6920    0.0000 C   0  0  0  0  0  0  0  0  0  0  0  0
   -0.1301   -3.8687    0.0000 C   0  0  0  0  0  0  0  0  0  0  0  0
    0.5849   -3.4571    0.0000 O   0  0  0  0  0  0  0  0  0  0  0  0
   -0.8440   -3.4554    0.0000 N   0  0  0  0  0  0  0  0  0  0  0  0
   -0.8430   -2.6304    0.0000 C   0  0  2  0  0  0  0  0  0  0  0  0
   -1.5570   -2.2170    0.0000 C   0  0  0  0  0  0  0  0  0  0  0  0
   -1.5560   -1.3920    0.0000 N   0  0  0  0  0  0  0  0  0  0  0  0
   -2.2700   -0.9786    0.0000 C   0  0  0  0  0  0  0  0  0  0  0  0
   -0.8411   -0.9804    0.0000 C   0  0  2  0  0  0  0  0  0  0  0  0
   -0.8411   -0.1554    0.0000 C   0  0  0  0  0  0  0  0  0  0  0  0
   -0.1286    0.2571    0.0000 C   0  0  0  0  0  0  0  0  0  0  0  0
    0.1714    1.1143    0.0000 C   0  0  0  0  0  0  0  0  0  0  0  0
    0.9964    1.1143    0.0000 N   0  0  0  0  0  0  0  0  0  0  0  0
    1.3018    0.2571    0.0000 C   0  0  0  0  0  0  0  0  0  0  0  0
    2.0143   -0.1554    0.0000 C   0  0  0  0  0  0  0  0  0  0  0  0
    2.0143   -0.9804    0.0000 C   0  0  0  0  0  0  0  0  0  0  0  0
    1.3018   -1.3929    0.0000 C   0  0  0  0  0  0  0  0  0  0  0  0
    0.5839   -0.9804    0.0000 C   0  0  0  0  0  0  0  0  0  0  0  0
   -0.1271   -1.3937    0.0000 C   0  0  0  0  0  0  0  0  0  0  0  0
   -0.1281   -2.2187    0.0000 C   0  0  0  0  0  0  0  0  0  0  0  0
    0.5839   -0.1554    0.0000 C   0  0  0  0  0  0  0  0  0  0  0  0
  1  2  1  0  0  0  0
  2  3  1  0  0  0  0
  3  4  1  0  0  0  0
  4  5  1  0  0  0  0
  3  6  1  0  0  0  0
  6  7  2  0  0  0  0
  6  8  1  0  0  0  0
  9  8  1  6  0  0  0
  9 10  1  0  0  0  0
 10 11  1  0  0  0  0
 11 12  1  0  0  0  0
 13 11  1  6  0  0  0
 13 14  1  0  0  0  0
 14 15  1  0  0  0  0
 15 16  4  0  0  0  0
 16 17  4  0  0  0  0
 17 18  4  0  0  0  0
 18 19  4  0  0  0  0
 19 20  4  0  0  0  0
 20 21  4  0  0  0  0
 21 22  4  0  0  0  0
 22 23  1  0  0  0  0
 13 23  1  0  0  0  0
 23 24  2  0  0  0  0
  9 24  1  0  0  0  0
 22 25  4  0  0  0  0
 15 25  4  0  0  0  0
 18 25  4  0  0  0  0
M  STY  1   1 DAT
M  SAL   1  1  17
M  SDT   1 MRV_IMPLICIT_H                                        
M  SDD   1     0.0000    0.0000    DR    ALL  0       0  
M  SED   1 IMPL_H1
M  END

> <ChembankId>
3169

> <SMILES>
CCN(CC)C(=O)N[C@@H]1CN(C)[C@@H]2Cc3c[nH]c4cccc(C2=C1)c34

> <InChI>
1/C20H26N4O/c1-4-24(5-2)20(25)22-14-10-16-15-7-6-8-17-19(15)13(11-21-17)9-18(16)23(3)12-14/h6-8,10-11,14,18,21H,4-5,9,12H2,1-3H3,(H,22,25)

$$$$
1779
  Marvin  11101114192D          

 16 17  0  0  0  0            999 V2000
    0.0000   -1.6500    0.0000 C   0  0  0  0  0  0  0  0  0  0  0  0
    0.7145   -1.2375    0.0000 O   0  0  0  0  0  0  0  0  0  0  0  0
    0.7145   -0.4125    0.0000 C   0  0  0  0  0  0  0  0  0  0  0  0
    0.0000    0.0000    0.0000 N   0  0  0  0  0  0  0  0  0  0  0  0
    0.0000    0.8250    0.0000 C   0  0  0  0  0  0  0  0  0  0  0  0
   -0.7145    1.2375    0.0000 C   0  0  0  0  0  0  0  0  0  0  0  0
    0.7145    1.2375    0.0000 N   0  0  0  0  0  0  0  0  0  0  0  0
    1.4289    0.8250    0.0000 C   0  0  0  0  0  0  0  0  0  0  0  0
    2.1434    1.2375    0.0000 Cl  0  0  0  0  0  0  0  0  0  0  0  0
    1.4289    0.0000    0.0000 C   0  0  0  0  0  0  0  0  0  0  0  0
    2.1434   -0.4125    0.0000 N   0  0  0  0  0  0  0  0  0  0  0  0
    2.1434   -1.2375    0.0000 C   0  0  0  0  0  0  0  0  0  0  0  0
    1.4760   -1.7224    0.0000 N   0  0  0  0  0  0  0  0  0  0  0  0
    1.7309   -2.5070    0.0000 C   0  0  0  0  0  0  0  0  0  0  0  0
    2.5559   -2.5070    0.0000 C   0  0  0  0  0  0  0  0  0  0  0  0
    2.8109   -1.7224    0.0000 N   0  0  0  0  0  0  0  0  0  0  0  0
  1  2  1  0  0  0  0
  2  3  1  0  0  0  0
  3  4  4  0  0  0  0
  4  5  4  0  0  0  0
  5  6  1  0  0  0  0
  5  7  4  0  0  0  0
  7  8  4  0  0  0  0
  8  9  1  0  0  0  0
  8 10  4  0  0  0  0
  3 10  4  0  0  0  0
 10 11  1  0  0  0  0
 11 12  1  0  0  0  0
 12 13  2  0  0  0  0
 13 14  1  0  0  0  0
 14 15  1  0  0  0  0
 15 16  1  0  0  0  0
 12 16  1  0  0  0  0
M  END

> <ChembankId>
1779

> <SMILES>
COc1nc(C)nc(Cl)c1NC2=NCCN2

> <InChI>
1/C9H12ClN5O/c1-5-13-7(10)6(8(14-5)16-2)15-9-11-3-4-12-9/h3-4H2,1-2H3,(H2,11,12,15)

$$$$
2847
  Marvin  11101114192D          

 20 20  0  0  0  0            999 V2000
    0.0000   -2.4750    0.0000 C   0  0  0  0  0  0  0  0  0  0  0  0
   -0.7145   -2.8875    0.0000 C   0  0  0  0  0  0  0  0  0  0  0  0
   -0.7145   -3.7125    0.0000 C   0  0  0  0  0  0  0  0  0  0  0  0
   -1.4289   -2.4750    0.0000 C   0  0  0  0  0  0  0  0  0  0  0  0
   -2.1434   -2.8875    0.0000 C   0  0  0  0  0  0  0  0  0  0  0  0
   -2.8579   -2.4750    0.0000 C   0  0  0  0  0  0  0  0  0  0  0  0
   -3.5724   -2.8875    0.0000 O   0  0  0  0  0  0  0  0  0  0  0  0
   -4.2868   -2.4750    0.0000 C   0  0  0  0  0  0  0  0  0  0  0  0
   -5.0013   -2.8875    0.0000 O   0  0  0  0  0  0  0  0  0  0  0  0
   -4.2868   -1.6500    0.0000 C   0  0  0  0  0  0  0  0  0  0  0  0
   -2.8579   -1.6500    0.0000 C   0  0  0  0  0  0  0  0  0  0  0  0
   -3.5724   -1.2375    0.0000 C   0  0  0  0  0  0  0  0  0  0  0  0
   -2.1434   -1.2375    0.0000 C   0  0  0  0  0  0  0  0  0  0  0  0
   -1.4289   -1.6500    0.0000 C   0  0  0  0  0  0  0  0  0  0  0  0
   -0.7145   -1.2375    0.0000 O   0  0  0  0  0  0  0  0  0  0  0  0
    0.0000   -1.6500    0.0000 C   0  0  0  0  0  0  0  0  0  0  0  0
    0.7145   -1.2375    0.0000 C   0  0  0  0  0  0  0  0  0  0  0  0
    1.4289   -1.6500    0.0000 N   0  0  0  0  0  0  0  0  0  0  0  0
    2.1434   -1.2375    0.0000 C   0  0  0  0  0  0  0  0  0  0  0  0
    1.4289   -2.4750    0.0000 C   0  0  0  0  0  0  0  0  0  0  0  0
  1  2  1  0  0  0  0
  2  3  1  0  0  0  0
  2  4  1  0  0  0  0
  4  5  4  0  0  0  0
  5  6  4  0  0  0  0
  6  7  1  0  0  0  0
  7  8  1  0  0  0  0
  8  9  2  0  0  0  0
  8 10  1  0  0  0  0
  6 11  4  0  0  0  0
 11 12  1  0  0  0  0
 11 13  4  0  0  0  0
 13 14  4  0  0  0  0
  4 14  4  0  0  0  0
 14 15  1  0  0  0  0
 15 16  1  0  0  0  0
 16 17  1  0  0  0  0
 17 18  1  0  0  0  0
 18 19  1  0  0  0  0
 18 20  1  0  0  0  0
M  END

> <ChembankId>
2847

> <SMILES>
CC(C)c1cc(OC(=O)C)c(C)cc1OCCN(C)C

> <InChI>
1/C16H25NO3/c1-11(2)14-10-15(20-13(4)18)12(3)9-16(14)19-8-7-17(5)6/h9-11H,7-8H2,1-6H3

$$$$
3177249
  Marvin  11101114192D          

 32 34  0  0  0  0            999 V2000
    4.0668    3.1729    0.0000 C   0  0  0  0  0  0  0  0  0  0  0  0
    4.0668    2.3479    0.0000 C   0  0  0  0  0  0  0  0  0  0  0  0
    4.7812    1.9354    0.0000 C   0  0  0  0  0  0  0  0  0  0  0  0
    3.3523    1.9354    0.0000 C   0  0  0  0  0  0  0  0  0  0  0  0
    3.3523    1.1104    0.0000 C   0  0  0  0  0  0  0  0  0  0  0  0
    2.6378    0.6979    0.0000 C   0  0  0  0  0  0  0  0  0  0  0  0
    1.9233    1.1104    0.0000 C   0  0  0  0  0  0  0  0  0  0  0  0
    1.1387    0.8555    0.0000 N   0  0  0  0  0  0  0  0  0  0  0  0
    0.8838    0.0709    0.0000 C   0  0  0  0  0  0  0  0  0  0  0  0
    0.0768   -0.1006    0.0000 C   0  0  0  0  0  0  0  0  0  0  0  0
   -0.1781   -0.8853    0.0000 C   0  0  0  0  0  0  0  0  0  0  0  0
   -0.9851   -1.0568    0.0000 C   0  0  0  0  0  0  0  0  0  0  0  0
   -1.5371   -0.4437    0.0000 C   0  0  0  0  0  0  0  0  0  0  0  0
   -2.3441   -0.6152    0.0000 Cl  0  0  0  0  0  0  0  0  0  0  0  0
   -1.2822    0.3409    0.0000 C   0  0  0  0  0  0  0  0  0  0  0  0
   -0.4752    0.5124    0.0000 C   0  0  0  0  0  0  0  0  0  0  0  0
    0.6538    1.5229    0.0000 C   0  0  0  0  0  0  0  0  0  0  0  0
   -0.1712    1.5229    0.0000 C   0  0  0  0  0  0  0  0  0  0  0  0
   -0.5837    2.2374    0.0000 C   0  0  0  0  0  0  0  0  0  0  0  0
   -1.2982    1.8249    0.0000 C   0  0  0  0  0  0  0  0  0  0  0  0
    0.1308    2.6499    0.0000 C   0  0  0  0  0  0  0  0  0  0  0  0
   -0.9962    2.9519    0.0000 C   0  0  0  0  0  0  0  0  0  0  0  0
   -1.8212    2.9519    0.0000 O   0  0  0  0  0  0  0  0  0  0  0  0
   -0.5837    3.6664    0.0000 O   0  0  0  0  0  0  0  0  0  0  0  0
    1.1387    2.1904    0.0000 C   0  0  0  0  0  0  0  0  0  0  0  0
    0.8838    2.9750    0.0000 S   0  0  0  0  0  0  0  0  0  0  0  0
    1.4358    3.5881    0.0000 C   0  0  0  0  0  0  0  0  0  0  0  0
    2.0489    3.0361    0.0000 C   0  0  0  0  0  0  0  0  0  0  0  0
    0.8227    4.1401    0.0000 C   0  0  0  0  0  0  0  0  0  0  0  0
    1.9878    4.2012    0.0000 C   0  0  0  0  0  0  0  0  0  0  0  0
    1.9233    1.9354    0.0000 C   0  0  0  0  0  0  0  0  0  0  0  0
    2.6378    2.3479    0.0000 C   0  0  0  0  0  0  0  0  0  0  0  0
  1  2  1  0  0  0  0
  2  3  1  0  0  0  0
  2  4  1  0  0  0  0
  4  5  4  0  0  0  0
  5  6  4  0  0  0  0
  6  7  4  0  0  0  0
  7  8  4  0  0  0  0
  8  9  1  0  0  0  0
  9 10  1  0  0  0  0
 10 11  4  0  0  0  0
 11 12  4  0  0  0  0
 12 13  4  0  0  0  0
 13 14  1  0  0  0  0
 13 15  4  0  0  0  0
 15 16  4  0  0  0  0
 10 16  4  0  0  0  0
  8 17  4  0  0  0  0
 17 18  1  0  0  0  0
 18 19  1  0  0  0  0
 19 20  1  0  0  0  0
 19 21  1  0  0  0  0
 19 22  1  0  0  0  0
 22 23  2  0  0  0  0
 22 24  1  0  0  0  0
 17 25  4  0  0  0  0
 25 26  1  0  0  0  0
 26 27  1  0  0  0  0
 27 28  1  0  0  0  0
 27 29  1  0  0  0  0
 27 30  1  0  0  0  0
 25 31  4  0  0  0  0
  7 31  4  0  0  0  0
 31 32  4  0  0  0  0
  4 32  4  0  0  0  0
M  END

> <ChembankId>
3177249

> <SMILES>
CC(C)c1ccc2n(Cc3ccc(Cl)cc3)c(CC(C)(C)C(=O)O)c(SC(C)(C)C)c2c1

> <InChI>
1/C27H34ClNO2S/c1-17(2)19-10-13-22-21(14-19)24(32-26(3,4)5)23(15-27(6,7)25(30)31)29(22)16-18-8-11-20(28)12-9-18/h8-14,17H,15-16H2,1-7H3,(H,30,31)

$$$$
3061928
  Marvin  11101114192D          

 31 34  0  0  0  0            999 V2000
    0.0000    0.8250    0.0000 C   0  0  0  0  0  0  0  0  0  0  0  0
    0.0000    0.0000    0.0000 O   0  0  0  0  0  0  0  0  0  0  0  0
    0.7145   -0.4125    0.0000 C   0  0  0  0  0  0  0  0  0  0  0  0
    1.4289    0.0000    0.0000 C   0  0  0  0  0  0  0  0  0  0  0  0
    2.1434   -0.4125    0.0000 C   0  0  0  0  0  0  0  0  0  0  0  0
    2.8579    0.0000    0.0000 N   0  0  0  0  0  0  0  0  0  0  0  0
    3.5724   -0.4125    0.0000 C   0  0  0  0  0  0  0  0  0  0  0  0
    3.5724   -1.2375    0.0000 N   0  0  0  0  0  0  0  0  0  0  0  0
    2.8579   -1.6500    0.0000 C   0  0  0  0  0  0  0  0  0  0  0  0
    2.8579   -2.4750    0.0000 N   0  0  0  0  0  0  0  0  0  0  0  0
    3.5724   -2.8875    0.0000 C   0  0  0  0  0  0  0  0  0  0  0  0
    4.2868   -2.4750    0.0000 C   0  0  0  0  0  0  0  0  0  0  0  0
    5.0013   -2.8875    0.0000 C   0  0  0  0  0  0  0  0  0  0  0  0
    5.0013   -3.7125    0.0000 C   0  0  0  0  0  0  0  0  0  0  0  0
    5.7158   -4.1250    0.0000 F   0  0  0  0  0  0  0  0  0  0  0  0
    4.2868   -4.1250    0.0000 C   0  0  0  0  0  0  0  0  0  0  0  0
    4.2868   -4.9500    0.0000 Cl  0  0  0  0  0  0  0  0  0  0  0  0
    3.5724   -3.7125    0.0000 C   0  0  0  0  0  0  0  0  0  0  0  0
    2.1434   -1.2375    0.0000 C   0  0  0  0  0  0  0  0  0  0  0  0
    1.4289   -1.6500    0.0000 C   0  0  0  0  0  0  0  0  0  0  0  0
    0.7145   -1.2375    0.0000 C   0  0  0  0  0  0  0  0  0  0  0  0
    0.0000   -1.6500    0.0000 O   0  0  0  0  0  0  0  0  0  0  0  0
   -0.7145   -1.2375    0.0000 C   0  0  0  0  0  0  0  0  0  0  0  0
   -0.7145   -0.4125    0.0000 C   0  0  0  0  0  0  0  0  0  0  0  0
   -1.4289   -0.0000    0.0000 C   0  0  0  0  0  0  0  0  0  0  0  0
   -1.4289    0.8250    0.0000 N   0  0  0  0  0  0  0  0  0  0  0  0
   -2.1434    1.2375    0.0000 C   0  0  0  0  0  0  0  0  0  0  0  0
   -2.1434    2.0625    0.0000 C   0  0  0  0  0  0  0  0  0  0  0  0
   -1.4289    2.4750    0.0000 O   0  0  0  0  0  0  0  0  0  0  0  0
   -0.7145    2.0625    0.0000 C   0  0  0  0  0  0  0  0  0  0  0  0
   -0.7145    1.2375    0.0000 C   0  0  0  0  0  0  0  0  0  0  0  0
  1  2  1  0  0  0  0
  2  3  1  0  0  0  0
  3  4  4  0  0  0  0
  4  5  4  0  0  0  0
  5  6  4  0  0  0  0
  6  7  4  0  0  0  0
  7  8  4  0  0  0  0
  8  9  4  0  0  0  0
  9 10  1  0  0  0  0
 10 11  1  0  0  0  0
 11 12  4  0  0  0  0
 12 13  4  0  0  0  0
 13 14  4  0  0  0  0
 14 15  1  0  0  0  0
 14 16  4  0  0  0  0
 16 17  1  0  0  0  0
 16 18  4  0  0  0  0
 11 18  4  0  0  0  0
  9 19  4  0  0  0  0
  5 19  4  0  0  0  0
 19 20  4  0  0  0  0
 20 21  4  0  0  0  0
  3 21  4  0  0  0  0
 21 22  1  0  0  0  0
 22 23  1  0  0  0  0
 23 24  1  0  0  0  0
 24 25  1  0  0  0  0
 25 26  1  0  0  0  0
 26 27  1  0  0  0  0
 27 28  1  0  0  0  0
 28 29  1  0  0  0  0
 29 30  1  0  0  0  0
 30 31  1  0  0  0  0
 26 31  1  0  0  0  0
M  END

> <ChembankId>
3061928

> <SMILES>
COc1cc2ncnc(Nc3ccc(F)c(Cl)c3)c2cc1OCCCN4CCOCC4

> <InChI>
1/C22H24ClFN4O3/c1-29-20-13-19-16(12-21(20)31-8-2-5-28-6-9-30-10-7-28)22(26-14-25-19)27-15-3-4-18(24)17(23)11-15/h3-4,11-14H,2,5-10H2,1H3,(H,25,26,27)

$$$$
907387
  Marvin  11101114192D          

 17 20  0  0  1  0            999 V2000
    0.8444    0.2390    0.0000 C   0  0  0  0  0  0  0  0  0  0  0  0
    1.0605   -0.5572    0.0000 C   0  0  2  0  0  0  0  0  0  0  0  0
    0.4999   -0.1173    0.0000 N   0  0  0  0  0  0  0  0  0  0  0  0
    0.6396   -0.9304    0.0000 C   0  0  2  0  0  0  0  0  0  0  0  0
    1.6113   -0.9304    0.0000 C   0  0  0  0  0  0  0  0  0  0  0  0
    2.1275   -1.3591    0.0000 C   0  0  0  0  0  0  0  0  0  0  0  0
    2.9007   -1.6467    0.0000 C   0  0  0  0  0  0  0  0  0  0  0  0
    3.5364   -1.1209    0.0000 C   0  0  0  0  0  0  0  0  0  0  0  0
    3.3989   -0.3074    0.0000 C   0  0  0  0  0  0  0  0  0  0  0  0
    2.6257   -0.0198    0.0000 C   0  0  0  0  0  0  0  0  0  0  0  0
    1.9900   -0.5456    0.0000 C   0  0  0  0  0  0  0  0  0  0  0  0
    0.7400   -1.2658    0.0000 C   0  0  0  0  0  0  0  0  0  0  0  0
    1.4635   -1.6622    0.0000 C   0  0  0  0  0  0  0  0  0  0  0  0
    1.4820   -2.4870    0.0000 C   0  0  0  0  0  0  0  0  0  0  0  0
    0.7770   -2.9154    0.0000 C   0  0  0  0  0  0  0  0  0  0  0  0
    0.0534   -2.5190    0.0000 C   0  0  0  0  0  0  0  0  0  0  0  0
    0.0349   -1.6942    0.0000 C   0  0  0  0  0  0  0  0  0  0  0  0
  2  1  1  6  0  0  0
  2  3  1  0  0  0  0
  4  3  1  6  0  0  0
  4  5  1  0  0  0  0
  5  6  1  0  0  0  0
  6  7  4  0  0  0  0
  7  8  4  0  0  0  0
  8  9  4  0  0  0  0
  9 10  4  0  0  0  0
 10 11  4  0  0  0  0
  6 11  4  0  0  0  0
  2 11  1  0  0  0  0
  2 12  1  0  0  0  0
 12 13  4  0  0  0  0
 13 14  4  0  0  0  0
 14 15  4  0  0  0  0
 15 16  4  0  0  0  0
 16 17  4  0  0  0  0
  4 17  1  0  0  0  0
 12 17  4  0  0  0  0
M  END

> <ChembankId>
907387

> <SMILES>
C[C@@]1(N[C@@H]2Cc3ccccc31)c4ccccc24

> <InChI>
1/C16H15N/c1-16-13-8-4-2-6-11(13)10-15(17-16)12-7-3-5-9-14(12)16/h2-9,15,17H,10H2,1H3

$$$$
3177327
  Marvin  11101114192D          

 41 46  0  0  1  0            999 V2000
    2.3665   -4.5563    0.0000 C   0  0  0  0  0  0  0  0  0  0  0  0
    2.8728   -3.9050    0.0000 C   0  0  0  0  0  0  0  0  0  0  0  0
    3.6900   -4.0179    0.0000 O   0  0  0  0  0  0  0  0  0  0  0  0
    2.5619   -3.1408    0.0000 O   0  0  0  0  0  0  0  0  0  0  0  0
    3.0683   -2.4895    0.0000 C   0  0  1  0  0  0  0  0  0  0  0  0
    2.8390   -1.6970    0.0000 C   0  0  2  0  0  0  0  0  0  0  0  0
    3.5218   -1.2340    0.0000 C   0  0  0  0  0  0  0  0  0  0  0  0
    4.1731   -1.7404    0.0000 C   0  0  1  0  0  0  0  0  0  0  0  0
    4.9853   -1.5952    0.0000 C   0  0  2  0  0  0  0  0  0  0  0  0
    5.2655   -0.8192    0.0000 C   0  0  0  0  0  0  0  0  0  0  0  0
    6.0777   -0.6740    0.0000 C   0  0  0  0  0  0  0  0  0  0  0  0
    6.6095   -1.3047    0.0000 C   0  0  1  0  0  0  0  0  0  0  0  0
    7.4216   -1.1595    0.0000 C   0  0  0  0  0  0  0  0  0  0  0  0
    7.9534   -1.7902    0.0000 C   0  0  2  0  0  0  0  0  0  0  0  0
    8.7655   -1.6450    0.0000 O   0  0  0  0  0  0  0  0  0  0  0  0
    9.0458   -0.8691    0.0000 C   0  0  0  0  0  0  0  0  0  0  0  0
    9.8580   -0.7239    0.0000 O   0  0  0  0  0  0  0  0  0  0  0  0
    8.5140   -0.2384    0.0000 C   0  0  0  0  0  0  0  0  0  0  0  0
    7.6731   -2.5662    0.0000 C   0  0  2  0  0  0  0  0  0  0  0  0
    6.8610   -2.7114    0.0000 C   0  0  0  0  0  0  0  0  0  0  0  0
    6.3292   -2.0807    0.0000 C   0  0  1  0  0  0  0  0  0  0  0  0
    6.0489   -2.8566    0.0000 C   0  0  0  0  0  0  0  0  0  0  0  0
    5.5171   -2.2259    0.0000 C   0  0  1  0  0  0  0  0  0  0  0  0
    5.2368   -3.0018    0.0000 C   0  0  0  0  0  0  0  0  0  0  0  0
    4.4247   -3.1470    0.0000 C   0  0  0  0  0  0  0  0  0  0  0  0
    3.8928   -2.5163    0.0000 C   0  0  2  0  0  0  0  0  0  0  0  0
    3.5330   -3.2587    0.0000 C   0  0  0  0  0  0  0  0  0  0  0  0
    8.2049   -3.1969    0.0000 N   0  3  0  0  0  0  0  0  0  0  0  0
    7.4915   -3.6111    0.0000 C   0  0  0  0  0  0  0  0  0  0  0  0
    8.7337   -2.5636    0.0000 C   0  0  0  0  0  0  0  0  0  0  0  0
    9.5465   -2.7049    0.0000 C   0  0  0  0  0  0  0  0  0  0  0  0
    9.8306   -3.4795    0.0000 C   0  0  0  0  0  0  0  0  0  0  0  0
    9.3018   -4.1127    0.0000 C   0  0  0  0  0  0  0  0  0  0  0  0
    8.4890   -3.9714    0.0000 C   0  0  0  0  0  0  0  0  0  0  0  0
    2.0630   -1.4167    0.0000 N   0  3  0  0  0  0  0  0  0  0  0  0
    2.4738   -0.7012    0.0000 C   0  0  0  0  0  0  0  0  0  0  0  0
    1.9217   -2.2295    0.0000 C   0  0  0  0  0  0  0  0  0  0  0  0
    1.1472   -2.5135    0.0000 C   0  0  0  0  0  0  0  0  0  0  0  0
    0.5139   -1.9848    0.0000 C   0  0  0  0  0  0  0  0  0  0  0  0
    0.6552   -1.1720    0.0000 C   0  0  0  0  0  0  0  0  0  0  0  0
    1.4298   -0.8879    0.0000 C   0  0  0  0  0  0  0  0  0  0  0  0
  1  2  1  0  0  0  0
  2  3  2  0  0  0  0
  2  4  1  0  0  0  0
  5  4  1  1  0  0  0
  5  6  1  0  0  0  0
  6  7  1  0  0  0  0
  8  7  1  1  0  0  0
  8  9  1  0  0  0  0
  9 10  1  6  0  0  0
 10 11  1  0  0  0  0
 11 12  1  0  0  0  0
 12 13  1  1  0  0  0
 13 14  1  0  0  0  0
 14 15  1  6  0  0  0
 15 16  1  0  0  0  0
 16 17  2  0  0  0  0
 16 18  1  0  0  0  0
 14 19  1  0  0  0  0
 19 20  1  0  0  0  0
 20 21  1  0  0  0  0
 12 21  1  0  0  0  0
 21 22  1  1  0  0  0
 21 23  1  0  0  0  0
  9 23  1  0  0  0  0
 23 24  1  1  0  0  0
 24 25  1  0  0  0  0
 25 26  1  0  0  0  0
  5 26  1  0  0  0  0
  8 26  1  0  0  0  0
 26 27  1  1  0  0  0
 19 28  1  1  0  0  0
 28 29  1  0  0  0  0
 28 30  1  0  0  0  0
 30 31  1  0  0  0  0
 31 32  1  0  0  0  0
 32 33  1  0  0  0  0
 33 34  1  0  0  0  0
 28 34  1  0  0  0  0
  6 35  1  1  0  0  0
 35 36  1  0  0  0  0
 35 37  1  0  0  0  0
 37 38  1  0  0  0  0
 38 39  1  0  0  0  0
 39 40  1  0  0  0  0
 40 41  1  0  0  0  0
 35 41  1  0  0  0  0
M  CHG  2  28   1  35   1
M  END

> <ChembankId>
3177327

> <SMILES>
CC(=O)O[C@H]1[C@H](C[C@H]2[C@@H]3CC[C@H]4C[C@H](OC(=O)C)[C@H](C[C@]4(C)[C@H]3CC[C@]12C)[N+]5(C)CCCCC5)[N+]6(C)CCCCC6

> <InChI>
1/C35H60N2O4/c1-24(38)40-32-21-26-13-14-27-28(35(26,4)23-31(32)37(6)19-11-8-12-20-37)15-16-34(3)29(27)22-30(33(34)41-25(2)39)36(5)17-9-7-10-18-36/h26-33H,7-23H2,1-6H3/q+2

$$$$
1072
  Marvin  11101114192D          

 23 26  0  0  1  0            999 V2000
    1.7447   -3.0280    0.0000 C   0  0  0  0  0  0  0  0  0  0  0  0
    2.5619   -3.1408    0.0000 C   0  0  0  0  0  0  0  0  0  0  0  0
    2.8728   -3.9050    0.0000 O   0  0  0  0  0  0  0  0  0  0  0  0
    3.0683   -2.4895    0.0000 C   0  0  1  0  0  0  0  0  0  0  0  0
    2.8390   -1.6970    0.0000 C   0  0  0  0  0  0  0  0  0  0  0  0
    3.5218   -1.2340    0.0000 C   0  0  0  0  0  0  0  0  0  0  0  0
    4.1731   -1.7404    0.0000 C   0  0  1  0  0  0  0  0  0  0  0  0
    4.9853   -1.5952    0.0000 C   0  0  2  0  0  0  0  0  0  0  0  0
    5.2655   -0.8192    0.0000 C   0  0  0  0  0  0  0  0  0  0  0  0
    6.0777   -0.6740    0.0000 C   0  0  0  0  0  0  0  0  0  0  0  0
    6.6095   -1.3047    0.0000 C   0  0  0  0  0  0  0  0  0  0  0  0
    7.4216   -1.1595    0.0000 C   0  0  0  0  0  0  0  0  0  0  0  0
    7.9534   -1.7902    0.0000 C   0  0  0  0  0  0  0  0  0  0  0  0
    8.7655   -1.6450    0.0000 O   0  0  0  0  0  0  0  0  0  0  0  0
    7.6731   -2.5662    0.0000 C   0  0  0  0  0  0  0  0  0  0  0  0
    6.8610   -2.7114    0.0000 C   0  0  0  0  0  0  0  0  0  0  0  0
    6.3292   -2.0807    0.0000 C   0  0  1  0  0  0  0  0  0  0  0  0
    6.0489   -2.8566    0.0000 C   0  0  0  0  0  0  0  0  0  0  0  0
    5.5171   -2.2259    0.0000 C   0  0  1  0  0  0  0  0  0  0  0  0
    5.2368   -3.0018    0.0000 C   0  0  0  0  0  0  0  0  0  0  0  0
    4.4247   -3.1470    0.0000 C   0  0  0  0  0  0  0  0  0  0  0  0
    3.8928   -2.5163    0.0000 C   0  0  2  0  0  0  0  0  0  0  0  0
    3.5330   -3.2587    0.0000 C   0  0  0  0  0  0  0  0  0  0  0  0
  1  2  1  0  0  0  0
  2  3  2  0  0  0  0
  4  2  1  1  0  0  0
  4  5  1  0  0  0  0
  5  6  1  0  0  0  0
  7  6  1  1  0  0  0
  7  8  1  0  0  0  0
  8  9  1  6  0  0  0
  9 10  1  0  0  0  0
 10 11  1  0  0  0  0
 11 12  2  0  0  0  0
 12 13  1  0  0  0  0
 13 14  2  0  0  0  0
 13 15  1  0  0  0  0
 15 16  1  0  0  0  0
 16 17  1  0  0  0  0
 11 17  1  0  0  0  0
 17 18  1  1  0  0  0
 17 19  1  0  0  0  0
  8 19  1  0  0  0  0
 19 20  1  1  0  0  0
 20 21  1  0  0  0  0
 21 22  1  0  0  0  0
  4 22  1  0  0  0  0
  7 22  1  0  0  0  0
 22 23  1  1  0  0  0
M  END

> <ChembankId>
1072

> <SMILES>
CC(=O)[C@H]1CC[C@H]2[C@@H]3CCC4=CC(=O)CC[C@]4(C)[C@H]3CC[C@]12C

> <InChI>
1/C21H30O2/c1-13(22)17-6-7-18-16-5-4-14-12-15(23)8-10-20(14,2)19(16)9-11-21(17,18)3/h12,16-19H,4-11H2,1-3H3

$$$$
907434
  Marvin  11101114192D          

 20 21  0  0  0  0            999 V2000
    2.8579   -0.8250    0.0000 C   0  0  0  0  0  0  0  0  0  0  0  0
    2.8579   -1.6500    0.0000 N   0  0  0  0  0  0  0  0  0  0  0  0
    3.5724   -2.0625    0.0000 C   0  0  0  0  0  0  0  0  0  0  0  0
    4.2868   -1.6500    0.0000 C   0  0  0  0  0  0  0  0  0  0  0  0
    5.0013   -2.0625    0.0000 C   0  0  0  0  0  0  0  0  0  0  0  0
    5.7158   -1.6500    0.0000 O   0  0  0  0  0  0  0  0  0  0  0  0
    6.4302   -2.0625    0.0000 C   0  0  0  0  0  0  0  0  0  0  0  0
    6.4302   -2.8875    0.0000 C   0  0  0  0  0  0  0  0  0  0  0  0
    7.1447   -3.3000    0.0000 C   0  0  0  0  0  0  0  0  0  0  0  0
    7.8592   -2.8875    0.0000 C   0  0  0  0  0  0  0  0  0  0  0  0
    7.8592   -2.0625    0.0000 C   0  0  0  0  0  0  0  0  0  0  0  0
    7.1447   -1.6500    0.0000 C   0  0  0  0  0  0  0  0  0  0  0  0
    7.1447   -0.8250    0.0000 O   0  0  0  0  0  0  0  0  0  0  0  0
    6.4302   -0.4125    0.0000 C   0  0  0  0  0  0  0  0  0  0  0  0
    5.0013   -2.8875    0.0000 C   0  0  0  0  0  0  0  0  0  0  0  0
    5.7158   -3.3000    0.0000 C   0  0  0  0  0  0  0  0  0  0  0  0
    5.7158   -4.1250    0.0000 C   0  0  0  0  0  0  0  0  0  0  0  0
    5.0013   -4.5375    0.0000 C   0  0  0  0  0  0  0  0  0  0  0  0
    4.2868   -4.1250    0.0000 C   0  0  0  0  0  0  0  0  0  0  0  0
    4.2868   -3.3000    0.0000 C   0  0  0  0  0  0  0  0  0  0  0  0
  1  2  1  0  0  0  0
  2  3  1  0  0  0  0
  3  4  1  0  0  0  0
  4  5  1  0  0  0  0
  5  6  1  0  0  0  0
  6  7  1  0  0  0  0
  7  8  4  0  0  0  0
  8  9  4  0  0  0  0
  9 10  4  0  0  0  0
 10 11  4  0  0  0  0
 11 12  4  0  0  0  0
  7 12  4  0  0  0  0
 12 13  1  0  0  0  0
 13 14  1  0  0  0  0
  5 15  1  0  0  0  0
 15 16  4  0  0  0  0
 16 17  4  0  0  0  0
 17 18  4  0  0  0  0
 18 19  4  0  0  0  0
 19 20  4  0  0  0  0
 15 20  4  0  0  0  0
M  END

> <ChembankId>
907434

> <SMILES>
CNCCC(Oc1ccccc1OC)c2ccccc2

> <InChI>
1/C17H21NO2/c1-18-13-12-15(14-8-4-3-5-9-14)20-17-11-7-6-10-16(17)19-2/h3-11,15,18H,12-13H2,1-2H3

$$$$
3480607
  Marvin  11101114192D          

 29 32  0  0  0  0            999 V2000
   -4.2868   -1.6500    0.0000 C   0  0  0  0  0  0  0  0  0  0  0  0
   -3.5724   -1.2375    0.0000 O   0  0  0  0  0  0  0  0  0  0  0  0
   -3.5724   -0.4125    0.0000 C   0  0  0  0  0  0  0  0  0  0  0  0
   -4.2868    0.0000    0.0000 C   0  0  0  0  0  0  0  0  0  0  0  0
   -4.2868    0.8250    0.0000 C   0  0  0  0  0  0  0  0  0  0  0  0
   -3.5724    1.2375    0.0000 C   0  0  0  0  0  0  0  0  0  0  0  0
   -2.8579    0.8250    0.0000 C   0  0  0  0  0  0  0  0  0  0  0  0
   -2.8579   -0.0000    0.0000 C   0  0  0  0  0  0  0  0  0  0  0  0
   -2.1434   -0.4125    0.0000 N   0  0  0  0  0  0  0  0  0  0  0  0
   -1.4289    0.0000    0.0000 C   0  0  0  0  0  0  0  0  0  0  0  0
   -0.7145   -0.4125    0.0000 C   0  0  0  0  0  0  0  0  0  0  0  0
   -0.7145   -1.2375    0.0000 N   0  0  0  0  0  0  0  0  0  0  0  0
    0.0000   -1.6500    0.0000 C   0  0  0  0  0  0  0  0  0  0  0  0
    0.0000   -2.4750    0.0000 C   0  0  0  0  0  0  0  0  0  0  0  0
   -0.7145   -2.8875    0.0000 O   0  0  0  0  0  0  0  0  0  0  0  0
    0.7145   -2.8875    0.0000 C   0  0  0  0  0  0  0  0  0  0  0  0
    1.4289   -2.4750    0.0000 O   0  0  0  0  0  0  0  0  0  0  0  0
    1.4289   -1.6500    0.0000 C   0  0  0  0  0  0  0  0  0  0  0  0
    0.7145   -1.2375    0.0000 C   0  0  0  0  0  0  0  0  0  0  0  0
    0.7145   -0.4125    0.0000 C   0  0  0  0  0  0  0  0  0  0  0  0
    1.4289    0.0000    0.0000 C   0  0  0  0  0  0  0  0  0  0  0  0
    2.1434   -0.4125    0.0000 C   0  0  0  0  0  0  0  0  0  0  0  0
    2.8579    0.0000    0.0000 C   0  0  0  0  0  0  0  0  0  0  0  0
    3.5724   -0.4125    0.0000 C   0  0  0  0  0  0  0  0  0  0  0  0
    3.5724   -1.2375    0.0000 C   0  0  0  0  0  0  0  0  0  0  0  0
    2.8579   -1.6500    0.0000 C   0  0  0  0  0  0  0  0  0  0  0  0
    2.1434   -1.2375    0.0000 C   0  0  0  0  0  0  0  0  0  0  0  0
   -1.4289   -1.6500    0.0000 C   0  0  0  0  0  0  0  0  0  0  0  0
   -2.1434   -1.2375    0.0000 C   0  0  0  0  0  0  0  0  0  0  0  0
  1  2  1  0  0  0  0
  2  3  1  0  0  0  0
  3  4  4  0  0  0  0
  4  5  4  0  0  0  0
  5  6  4  0  0  0  0
  6  7  4  0  0  0  0
  7  8  4  0  0  0  0
  3  8  4  0  0  0  0
  8  9  1  0  0  0  0
  9 10  1  0  0  0  0
 10 11  1  0  0  0  0
 11 12  1  0  0  0  0
 12 13  1  0  0  0  0
 13 14  1  0  0  0  0
 14 15  1  0  0  0  0
 14 16  1  0  0  0  0
 16 17  1  0  0  0  0
 17 18  1  0  0  0  0
 18 19  4  0  0  0  0
 19 20  4  0  0  0  0
 20 21  4  0  0  0  0
 21 22  4  0  0  0  0
 22 23  4  0  0  0  0
 23 24  4  0  0  0  0
 24 25  4  0  0  0  0
 25 26  4  0  0  0  0
 26 27  4  0  0  0  0
 18 27  4  0  0  0  0
 22 27  4  0  0  0  0
 12 28  1  0  0  0  0
 28 29  1  0  0  0  0
  9 29  1  0  0  0  0
M  END

> <ChembankId>
3480607

> <SMILES>
COc1ccccc1N2CCN(CC(O)COc3cccc4ccccc34)CC2

> <InChI>
1/C24H28N2O3/c1-28-24-11-5-4-10-22(24)26-15-13-25(14-16-26)17-20(27)18-29-23-12-6-8-19-7-2-3-9-21(19)23/h2-12,20,27H,13-18H2,1H3

$$$$
4487
  Marvin  11101114192D          

 20 22  0  0  0  0            999 V2000
   -0.5463   -2.6842    0.0000 C   0  0  0  0  0  0  0  0  0  0  0  0
    0.1681   -3.0967    0.0000 N   0  0  0  0  0  0  0  0  0  0  0  0
    0.8826   -2.6842    0.0000 C   0  0  0  0  0  0  0  0  0  0  0  0
    1.5971   -3.0967    0.0000 C   0  0  0  0  0  0  0  0  0  0  0  0
    2.3116   -2.6842    0.0000 C   0  0  0  0  0  0  0  0  0  0  0  0
    3.0260   -3.0967    0.0000 C   0  0  0  0  0  0  0  0  0  0  0  0
    3.7077   -2.6319    0.0000 C   0  0  0  0  0  0  0  0  0  0  0  0
    3.5241   -1.8276    0.0000 C   0  0  0  0  0  0  0  0  0  0  0  0
    4.1289   -1.2665    0.0000 C   0  0  0  0  0  0  0  0  0  0  0  0
    4.9172   -1.5096    0.0000 C   0  0  0  0  0  0  0  0  0  0  0  0
    5.1008   -2.3139    0.0000 C   0  0  0  0  0  0  0  0  0  0  0  0
    4.4960   -2.8751    0.0000 C   0  0  0  0  0  0  0  0  0  0  0  0
    4.7974   -3.6431    0.0000 C   0  0  0  0  0  0  0  0  0  0  0  0
    4.3849   -4.3575    0.0000 C   0  0  0  0  0  0  0  0  0  0  0  0
    3.5691   -4.4805    0.0000 C   0  0  0  0  0  0  0  0  0  0  0  0
    3.3856   -5.2848    0.0000 C   0  0  0  0  0  0  0  0  0  0  0  0
    2.5972   -5.5280    0.0000 C   0  0  0  0  0  0  0  0  0  0  0  0
    1.9925   -4.9668    0.0000 C   0  0  0  0  0  0  0  0  0  0  0  0
    2.1760   -4.1625    0.0000 C   0  0  0  0  0  0  0  0  0  0  0  0
    2.9644   -3.9193    0.0000 C   0  0  0  0  0  0  0  0  0  0  0  0
  1  2  1  0  0  0  0
  2  3  1  0  0  0  0
  3  4  1  0  0  0  0
  4  5  1  0  0  0  0
  5  6  1  0  0  0  0
  6  7  1  0  0  0  0
  7  8  4  0  0  0  0
  8  9  4  0  0  0  0
  9 10  4  0  0  0  0
 10 11  4  0  0  0  0
 11 12  4  0  0  0  0
  7 12  4  0  0  0  0
 12 13  1  0  0  0  0
 13 14  2  0  0  0  0
 14 15  1  0  0  0  0
 15 16  4  0  0  0  0
 16 17  4  0  0  0  0
 17 18  4  0  0  0  0
 18 19  4  0  0  0  0
 19 20  4  0  0  0  0
  6 20  1  0  0  0  0
 15 20  4  0  0  0  0
M  END

> <ChembankId>
4487

> <SMILES>
CNCCCC1c2ccccc2C=Cc3ccccc13

> <InChI>
1/C19H21N/c1-20-14-6-11-19-17-9-4-2-7-15(17)12-13-16-8-3-5-10-18(16)19/h2-5,7-10,12-13,19-20H,6,11,14H2,1H3

$$$$
2241
  Marvin  11101114192D          

 28 30  0  0  0  0            999 V2000
   -2.8579    0.0000    0.0000 C   0  0  0  0  0  0  0  0  0  0  0  0
   -2.1434   -0.4125    0.0000 O   0  0  0  0  0  0  0  0  0  0  0  0
   -2.1434   -1.2375    0.0000 C   0  0  0  0  0  0  0  0  0  0  0  0
   -1.4289   -1.6500    0.0000 C   0  0  0  0  0  0  0  0  0  0  0  0
   -1.4289   -2.4750    0.0000 C   0  0  0  0  0  0  0  0  0  0  0  0
   -2.1434   -2.8875    0.0000 C   0  0  0  0  0  0  0  0  0  0  0  0
   -2.8579   -2.4750    0.0000 C   0  0  0  0  0  0  0  0  0  0  0  0
   -2.8579   -1.6500    0.0000 C   0  0  0  0  0  0  0  0  0  0  0  0
   -3.5724   -1.2375    0.0000 C   0  0  0  0  0  0  0  0  0  0  0  0
   -4.2868   -1.6500    0.0000 O   0  0  0  0  0  0  0  0  0  0  0  0
   -3.5724   -0.4125    0.0000 N   0  0  0  0  0  0  0  0  0  0  0  0
   -4.2868    0.0000    0.0000 C   0  0  0  0  0  0  0  0  0  0  0  0
   -4.2868    0.8250    0.0000 C   0  0  0  0  0  0  0  0  0  0  0  0
   -5.0013    1.2375    0.0000 C   0  0  0  0  0  0  0  0  0  0  0  0
   -5.0013    2.0625    0.0000 C   0  0  0  0  0  0  0  0  0  0  0  0
   -4.2868    2.4750    0.0000 C   0  0  0  0  0  0  0  0  0  0  0  0
   -3.5724    2.0625    0.0000 N   0  0  0  0  0  0  0  0  0  0  0  0
   -3.5724    1.2375    0.0000 C   0  0  0  0  0  0  0  0  0  0  0  0
   -2.1434   -3.7125    0.0000 C   0  0  0  0  0  0  0  0  0  0  0  0
   -1.4289   -4.1250    0.0000 O   0  0  0  0  0  0  0  0  0  0  0  0
   -2.8579   -4.1250    0.0000 N   0  0  0  0  0  0  0  0  0  0  0  0
   -2.8579   -4.9500    0.0000 C   0  0  0  0  0  0  0  0  0  0  0  0
   -2.1434   -5.3625    0.0000 C   0  0  0  0  0  0  0  0  0  0  0  0
   -1.4289   -4.9500    0.0000 C   0  0  0  0  0  0  0  0  0  0  0  0
   -0.7145   -5.3625    0.0000 C   0  0  0  0  0  0  0  0  0  0  0  0
   -0.7145   -6.1875    0.0000 C   0  0  0  0  0  0  0  0  0  0  0  0
   -1.4289   -6.6000    0.0000 N   0  0  0  0  0  0  0  0  0  0  0  0
   -2.1434   -6.1875    0.0000 C   0  0  0  0  0  0  0  0  0  0  0  0
  1  2  1  0  0  0  0
  2  3  1  0  0  0  0
  3  4  4  0  0  0  0
  4  5  4  0  0  0  0
  5  6  4  0  0  0  0
  6  7  4  0  0  0  0
  7  8  4  0  0  0  0
  3  8  4  0  0  0  0
  8  9  1  0  0  0  0
  9 10  2  0  0  0  0
  9 11  1  0  0  0  0
 11 12  1  0  0  0  0
 12 13  1  0  0  0  0
 13 14  4  0  0  0  0
 14 15  4  0  0  0  0
 15 16  4  0  0  0  0
 16 17  4  0  0  0  0
 17 18  4  0  0  0  0
 13 18  4  0  0  0  0
  6 19  1  0  0  0  0
 19 20  2  0  0  0  0
 19 21  1  0  0  0  0
 21 22  1  0  0  0  0
 22 23  1  0  0  0  0
 23 24  4  0  0  0  0
 24 25  4  0  0  0  0
 25 26  4  0  0  0  0
 26 27  4  0  0  0  0
 27 28  4  0  0  0  0
 23 28  4  0  0  0  0
M  END

> <ChembankId>
2241

> <SMILES>
COc1ccc(cc1C(=O)NCc2cccnc2)C(=O)NCc3cccnc3

> <InChI>
1/C21H20N4O3/c1-28-19-7-6-17(20(26)24-13-15-4-2-8-22-11-15)10-18(19)21(27)25-14-16-5-3-9-23-12-16/h2-12H,13-14H2,1H3,(H,24,26)(H,25,27)

$$$$
1076620
  Marvin  11101114192D          

 12 12  0  0  0  0            999 V2000
    2.1434   -2.8875    0.0000 C   0  0  0  0  0  0  0  0  0  0  0  0
    1.4289   -2.4750    0.0000 N   0  0  0  0  0  0  0  0  0  0  0  0
    1.4289   -1.6500    0.0000 C   0  0  0  0  0  0  0  0  0  0  0  0
    0.7145   -1.2375    0.0000 C   0  0  0  0  0  0  0  0  0  0  0  0
    0.0000   -1.6500    0.0000 O   0  0  0  0  0  0  0  0  0  0  0  0
    0.7145   -0.4125    0.0000 C   0  0  0  0  0  0  0  0  0  0  0  0
   -0.0000    0.0000    0.0000 C   0  0  0  0  0  0  0  0  0  0  0  0
    0.0000    0.8250    0.0000 C   0  0  0  0  0  0  0  0  0  0  0  0
    0.7145    1.2375    0.0000 C   0  0  0  0  0  0  0  0  0  0  0  0
    0.7145    2.0625    0.0000 O   0  0  0  0  0  0  0  0  0  0  0  0
    1.4289    0.8250    0.0000 C   0  0  0  0  0  0  0  0  0  0  0  0
    1.4289    0.0000    0.0000 C   0  0  0  0  0  0  0  0  0  0  0  0
  1  2  1  0  0  0  0
  2  3  1  0  0  0  0
  3  4  1  0  0  0  0
  4  5  1  0  0  0  0
  4  6  1  0  0  0  0
  6  7  4  0  0  0  0
  7  8  4  0  0  0  0
  8  9  4  0  0  0  0
  9 10  1  0  0  0  0
  9 11  4  0  0  0  0
 11 12  4  0  0  0  0
  6 12  4  0  0  0  0
M  END

> <ChembankId>
1076620

> <SMILES>
CNCC(O)c1ccc(O)cc1

> <InChI>
1/C9H13NO2/c1-10-6-9(12)7-2-4-8(11)5-3-7/h2-5,9-12H,6H2,1H3

$$$$
2098610
  Marvin  11101114192D          

 13 15  0  0  0  0            999 V2000
    2.6612   -2.6869    0.0000 C   0  0  0  0  0  0  0  0  0  0  0  0
    1.8362   -2.6869    0.0000 C   0  0  0  0  0  0  0  0  0  0  0  0
    2.2487   -1.9724    0.0000 C   0  0  0  0  0  0  0  0  0  0  0  0
    2.2487   -1.1474    0.0000 C   0  0  0  0  0  0  0  0  0  0  0  0
    1.5342   -0.7349    0.0000 N   0  0  0  0  0  0  0  0  0  0  0  0
    1.5342    0.0901    0.0000 C   0  0  0  0  0  0  0  0  0  0  0  0
    0.8668    0.5750    0.0000 N   0  0  0  0  0  0  0  0  0  0  0  0
    1.1217    1.3596    0.0000 C   0  0  0  0  0  0  0  0  0  0  0  0
    1.9467    1.3596    0.0000 C   0  0  0  0  0  0  0  0  0  0  0  0
    2.2016    0.5750    0.0000 O   0  0  0  0  0  0  0  0  0  0  0  0
    2.9631   -0.7349    0.0000 C   0  0  0  0  0  0  0  0  0  0  0  0
    3.3756   -0.0204    0.0000 C   0  0  0  0  0  0  0  0  0  0  0  0
    3.7881   -0.7349    0.0000 C   0  0  0  0  0  0  0  0  0  0  0  0
  1  2  1  0  0  0  0
  2  3  1  0  0  0  0
  1  3  1  0  0  0  0
  3  4  1  0  0  0  0
  4  5  1  0  0  0  0
  5  6  1  0  0  0  0
  6  7  2  0  0  0  0
  7  8  1  0  0  0  0
  8  9  1  0  0  0  0
  9 10  1  0  0  0  0
  6 10  1  0  0  0  0
  4 11  1  0  0  0  0
 11 12  1  0  0  0  0
 12 13  1  0  0  0  0
 11 13  1  0  0  0  0
M  END

> <ChembankId>
2098610

> <SMILES>
C1CC1C(NC2=NCCO2)C3CC3

> <InChI>
1/C10H16N2O/c1-2-7(1)9(8-3-4-8)12-10-11-5-6-13-10/h7-9H,1-6H2,(H,11,12)

$$$$
3177482
  Marvin  11101114192D          

 26 28  0  0  0  0            999 V2000
   -0.1712   -0.6979    0.0000 C   0  0  0  0  0  0  0  0  0  0  0  0
    0.6538   -0.6979    0.0000 C   0  0  0  0  0  0  0  0  0  0  0  0
    1.1387   -0.0305    0.0000 C   0  0  0  0  0  0  0  0  0  0  0  0
    0.8838    0.7541    0.0000 C   0  0  0  0  0  0  0  0  0  0  0  0
    1.4358    1.3672    0.0000 C   0  0  0  0  0  0  0  0  0  0  0  0
    1.1809    2.1518    0.0000 O   0  0  0  0  0  0  0  0  0  0  0  0
    2.2428    1.1957    0.0000 O   0  0  0  0  0  0  0  0  0  0  0  0
    1.9233   -0.2854    0.0000 C   0  0  0  0  0  0  0  0  0  0  0  0
    2.6378    0.1271    0.0000 C   0  0  0  0  0  0  0  0  0  0  0  0
    3.3523   -0.2854    0.0000 C   0  0  0  0  0  0  0  0  0  0  0  0
    4.0668    0.1271    0.0000 F   0  0  0  0  0  0  0  0  0  0  0  0
    3.3523   -1.1104    0.0000 C   0  0  0  0  0  0  0  0  0  0  0  0
    2.6378   -1.5229    0.0000 C   0  0  0  0  0  0  0  0  0  0  0  0
    1.9233   -1.1104    0.0000 C   0  0  0  0  0  0  0  0  0  0  0  0
    1.1387   -1.3654    0.0000 C   0  0  0  0  0  0  0  0  0  0  0  0
    0.8838   -2.1500    0.0000 C   0  0  0  0  0  0  0  0  0  0  0  0
    1.4358   -2.7631    0.0000 C   0  0  0  0  0  0  0  0  0  0  0  0
    2.2428   -2.5916    0.0000 C   0  0  0  0  0  0  0  0  0  0  0  0
    2.7948   -3.2047    0.0000 C   0  0  0  0  0  0  0  0  0  0  0  0
    2.5399   -3.9893    0.0000 C   0  0  0  0  0  0  0  0  0  0  0  0
    1.7329   -4.1608    0.0000 C   0  0  0  0  0  0  0  0  0  0  0  0
    1.1809   -3.5477    0.0000 C   0  0  0  0  0  0  0  0  0  0  0  0
    3.0919   -4.6024    0.0000 S   0  0  0  0  0  0  0  0  0  0  0  0
    3.6439   -5.2155    0.0000 O   0  0  0  0  0  0  0  0  0  0  0  0
    2.4788   -5.1544    0.0000 O   0  0  0  0  0  0  0  0  0  0  0  0
    3.7050   -4.0503    0.0000 C   0  0  0  0  0  0  0  0  0  0  0  0
  1  2  1  0  0  0  0
  2  3  2  0  0  0  0
  3  4  1  0  0  0  0
  4  5  1  0  0  0  0
  5  6  2  0  0  0  0
  5  7  1  0  0  0  0
  3  8  1  0  0  0  0
  8  9  4  0  0  0  0
  9 10  4  0  0  0  0
 10 11  1  0  0  0  0
 10 12  4  0  0  0  0
 12 13  4  0  0  0  0
 13 14  4  0  0  0  0
  8 14  4  0  0  0  0
 14 15  1  0  0  0  0
  2 15  1  0  0  0  0
 15 16  2  0  0  0  0
 16 17  1  0  0  0  0
 17 18  4  0  0  0  0
 18 19  4  0  0  0  0
 19 20  4  0  0  0  0
 20 21  4  0  0  0  0
 21 22  4  0  0  0  0
 17 22  4  0  0  0  0
 20 23  1  0  0  0  0
 23 24  2  0  0  0  0
 23 25  2  0  0  0  0
 23 26  1  0  0  0  0
M  END

> <ChembankId>
3177482

> <SMILES>
CC/1=C(CC(=O)O)c2cc(F)ccc2\C1=C/c3ccc(cc3)S(=O)(=O)C

> <InChI>
1/C20H17FO4S/c1-12-17(9-13-3-6-15(7-4-13)26(2,24)25)16-8-5-14(21)10-19(16)18(12)11-20(22)23/h3-10H,11H2,1-2H3,(H,22,23)

$$$$
1002029
  Marvin  11101114192D          

 19 20  0  0  0  0            999 V2000
    0.7145    2.0625    0.0000 C   0  0  0  0  0  0  0  0  0  0  0  0
    0.7145    1.2375    0.0000 N   0  0  0  0  0  0  0  0  0  0  0  0
    0.0000    0.8250    0.0000 C   0  0  0  0  0  0  0  0  0  0  0  0
    1.4289    0.8250    0.0000 C   0  0  0  0  0  0  0  0  0  0  0  0
    1.4289    0.0000    0.0000 C   0  0  0  0  0  0  0  0  0  0  0  0
    2.1434   -0.4125    0.0000 C   0  0  0  0  0  0  0  0  0  0  0  0
    2.1434   -1.2375    0.0000 C   0  0  0  0  0  0  0  0  0  0  0  0
    2.8579   -1.6500    0.0000 C   0  0  0  0  0  0  0  0  0  0  0  0
    2.8579   -2.4750    0.0000 C   0  0  0  0  0  0  0  0  0  0  0  0
    2.1434   -2.8875    0.0000 C   0  0  0  0  0  0  0  0  0  0  0  0
    2.1434   -3.7125    0.0000 Br  0  0  0  0  0  0  0  0  0  0  0  0
    1.4289   -2.4750    0.0000 C   0  0  0  0  0  0  0  0  0  0  0  0
    1.4289   -1.6500    0.0000 C   0  0  0  0  0  0  0  0  0  0  0  0
    2.8579   -0.0000    0.0000 C   0  0  0  0  0  0  0  0  0  0  0  0
    2.8579    0.8250    0.0000 C   0  0  0  0  0  0  0  0  0  0  0  0
    3.5724    1.2375    0.0000 C   0  0  0  0  0  0  0  0  0  0  0  0
    4.2868    0.8250    0.0000 C   0  0  0  0  0  0  0  0  0  0  0  0
    4.2868   -0.0000    0.0000 N   0  0  0  0  0  0  0  0  0  0  0  0
    3.5724   -0.4125    0.0000 C   0  0  0  0  0  0  0  0  0  0  0  0
  1  2  1  0  0  0  0
  2  3  1  0  0  0  0
  2  4  1  0  0  0  0
  4  5  1  0  0  0  0
  5  6  2  0  0  0  0
  6  7  1  0  0  0  0
  7  8  4  0  0  0  0
  8  9  4  0  0  0  0
  9 10  4  0  0  0  0
 10 11  1  0  0  0  0
 10 12  4  0  0  0  0
 12 13  4  0  0  0  0
  7 13  4  0  0  0  0
  6 14  1  0  0  0  0
 14 15  4  0  0  0  0
 15 16  4  0  0  0  0
 16 17  4  0  0  0  0
 17 18  4  0  0  0  0
 18 19  4  0  0  0  0
 14 19  4  0  0  0  0
M  END

> <ChembankId>
1002029

> <SMILES>
CN(C)C/C=C(/c1ccc(Br)cc1)\c2cccnc2

> <InChI>
1/C16H17BrN2/c1-19(2)11-9-16(14-4-3-10-18-12-14)13-5-7-15(17)8-6-13/h3-10,12H,11H2,1-2H3/b16-9-

$$$$
2732
  Marvin  11101114192D          

 13 14  0  0  0  0            999 V2000
    1.4289   -2.4750    0.0000 C   0  0  0  0  0  0  0  0  0  0  0  0
    1.4289   -1.6500    0.0000 C   0  0  0  0  0  0  0  0  0  0  0  0
    0.7145   -1.2375    0.0000 C   0  0  0  0  0  0  0  0  0  0  0  0
    0.7145   -0.4125    0.0000 C   0  0  0  0  0  0  0  0  0  0  0  0
    0.0000    0.0000    0.0000 O   0  0  0  0  0  0  0  0  0  0  0  0
    1.4289    0.0000    0.0000 O   0  0  0  0  0  0  0  0  0  0  0  0
    2.1434   -0.4125    0.0000 C   0  0  0  0  0  0  0  0  0  0  0  0
    2.8579    0.0000    0.0000 C   0  0  0  0  0  0  0  0  0  0  0  0
    3.5724   -0.4125    0.0000 C   0  0  0  0  0  0  0  0  0  0  0  0
    4.2868   -0.0000    0.0000 O   0  0  0  0  0  0  0  0  0  0  0  0
    3.5724   -1.2375    0.0000 C   0  0  0  0  0  0  0  0  0  0  0  0
    2.8579   -1.6500    0.0000 C   0  0  0  0  0  0  0  0  0  0  0  0
    2.1434   -1.2375    0.0000 C   0  0  0  0  0  0  0  0  0  0  0  0
  1  2  1  0  0  0  0
  2  3  4  0  0  0  0
  3  4  4  0  0  0  0
  4  5  2  0  0  0  0
  4  6  4  0  0  0  0
  6  7  4  0  0  0  0
  7  8  4  0  0  0  0
  8  9  4  0  0  0  0
  9 10  1  0  0  0  0
  9 11  4  0  0  0  0
 11 12  4  0  0  0  0
 12 13  4  0  0  0  0
  2 13  4  0  0  0  0
  7 13  4  0  0  0  0
M  END

> <ChembankId>
2732

> <SMILES>
Cc1cc(=O)oc2cc(O)ccc12

> <InChI>
1/C10H8O3/c1-6-4-10(12)13-9-5-7(11)2-3-8(6)9/h2-5,11H,1H3

$$$$
1451360
  Marvin  11101114192D          

 20 22  0  0  0  0            999 V2000
    1.5395    0.4125    0.0000 O   0  0  0  0  0  0  0  0  0  0  0  0
    2.3645    0.4125    0.0000 C   0  0  0  0  0  0  0  0  0  0  0  0
    2.3645   -0.4125    0.0000 C   0  0  0  0  0  0  0  0  0  0  0  0
    3.0789   -0.8250    0.0000 C   0  0  0  0  0  0  0  0  0  0  0  0
    3.0789   -1.6500    0.0000 C   0  0  0  0  0  0  0  0  0  0  0  0
    2.3645   -2.0625    0.0000 N   0  0  0  0  0  0  0  0  0  0  0  0
    1.6500   -1.6500    0.0000 C   0  0  0  0  0  0  0  0  0  0  0  0
    1.6500   -0.8250    0.0000 C   0  0  0  0  0  0  0  0  0  0  0  0
    2.3645    1.2375    0.0000 C   0  0  0  0  0  0  0  0  0  0  0  0
    1.6500    1.6500    0.0000 C   0  0  0  0  0  0  0  0  0  0  0  0
    1.6500    2.4750    0.0000 C   0  0  0  0  0  0  0  0  0  0  0  0
    2.3645    2.8875    0.0000 C   0  0  0  0  0  0  0  0  0  0  0  0
    3.0789    2.4750    0.0000 C   0  0  0  0  0  0  0  0  0  0  0  0
    3.0789    1.6500    0.0000 C   0  0  0  0  0  0  0  0  0  0  0  0
    3.1895    0.4125    0.0000 C   0  0  0  0  0  0  0  0  0  0  0  0
    3.6020    1.1270    0.0000 C   0  0  0  0  0  0  0  0  0  0  0  0
    4.4270    1.1270    0.0000 C   0  0  0  0  0  0  0  0  0  0  0  0
    4.8395    0.4125    0.0000 C   0  0  0  0  0  0  0  0  0  0  0  0
    4.4270   -0.3020    0.0000 C   0  0  0  0  0  0  0  0  0  0  0  0
    3.6020   -0.3020    0.0000 C   0  0  0  0  0  0  0  0  0  0  0  0
  1  2  1  0  0  0  0
  2  3  1  0  0  0  0
  3  4  1  0  0  0  0
  4  5  1  0  0  0  0
  5  6  1  0  0  0  0
  6  7  1  0  0  0  0
  7  8  1  0  0  0  0
  3  8  1  0  0  0  0
  2  9  1  0  0  0  0
  9 10  4  0  0  0  0
 10 11  4  0  0  0  0
 11 12  4  0  0  0  0
 12 13  4  0  0  0  0
 13 14  4  0  0  0  0
  9 14  4  0  0  0  0
  2 15  1  0  0  0  0
 15 16  4  0  0  0  0
 16 17  4  0  0  0  0
 17 18  4  0  0  0  0
 18 19  4  0  0  0  0
 19 20  4  0  0  0  0
 15 20  4  0  0  0  0
M  END

> <ChembankId>
1451360

> <SMILES>
OC(C1CCNCC1)(c2ccccc2)c3ccccc3

> <InChI>
1/C18H21NO/c20-18(15-7-3-1-4-8-15,16-9-5-2-6-10-16)17-11-13-19-14-12-17/h1-10,17,19-20H,11-14H2

$$$$
1910
  Marvin  11101114192D          

  9  9  0  0  0  0            999 V2000
    2.1434    1.2375    0.0000 N   0  0  0  0  0  0  0  0  0  0  0  0
    1.4289    0.8250    0.0000 C   0  0  0  0  0  0  0  0  0  0  0  0
    1.4289   -0.0000    0.0000 N   0  0  0  0  0  0  0  0  0  0  0  0
    0.7145   -0.4125    0.0000 C   0  0  0  0  0  0  0  0  0  0  0  0
    0.7145   -1.2375    0.0000 O   0  0  0  0  0  0  0  0  0  0  0  0
    0.0000    0.0000    0.0000 N   0  0  0  0  0  0  0  0  0  0  0  0
    0.0000    0.8250    0.0000 C   0  0  0  0  0  0  0  0  0  0  0  0
    0.7145    1.2375    0.0000 C   0  0  0  0  0  0  0  0  0  0  0  0
    0.7145    2.0625    0.0000 F   0  0  0  0  0  0  0  0  0  0  0  0
  1  2  1  0  0  0  0
  2  3  4  0  0  0  0
  3  4  4  0  0  0  0
  4  5  2  0  0  0  0
  4  6  4  0  0  0  0
  6  7  4  0  0  0  0
  7  8  4  0  0  0  0
  2  8  4  0  0  0  0
  8  9  1  0  0  0  0
M  STY  1   1 DAT
M  SAL   1  1   6
M  SDT   1 MRV_IMPLICIT_H                                        
M  SDD   1     0.0000    0.0000    DR    ALL  0       0  
M  SED   1 IMPL_H1
M  END

> <ChembankId>
1910

> <SMILES>
Nc1nc(=O)[nH]cc1F

> <InChI>
1/C4H4FN3O/c5-2-1-7-4(9)8-3(2)6/h1H,(H3,6,7,8,9)

$$$$
1007091
  Marvin  11101114192D          

 22 24  0  0  0  0            999 V2000
   -0.7145   -0.4125    0.0000 N   0  0  0  0  0  0  0  0  0  0  0  0
   -0.7145   -1.2375    0.0000 C   0  0  0  0  0  0  0  0  0  0  0  0
    0.0000   -1.6500    0.0000 C   0  0  0  0  0  0  0  0  0  0  0  0
    0.0000   -2.4750    0.0000 C   0  0  0  0  0  0  0  0  0  0  0  0
   -0.7145   -2.8875    0.0000 C   0  0  0  0  0  0  0  0  0  0  0  0
   -1.4289   -2.4750    0.0000 C   0  0  0  0  0  0  0  0  0  0  0  0
   -1.4289   -1.6500    0.0000 C   0  0  0  0  0  0  0  0  0  0  0  0
   -0.7145   -3.7125    0.0000 C   0  0  0  0  0  0  0  0  0  0  0  0
   -1.4289   -4.1250    0.0000 C   0  0  0  0  0  0  0  0  0  0  0  0
   -1.4289   -4.9500    0.0000 C   0  0  0  0  0  0  0  0  0  0  0  0
   -2.1434   -5.3625    0.0000 C   0  0  0  0  0  0  0  0  0  0  0  0
   -2.8579   -4.9500    0.0000 C   0  0  0  0  0  0  0  0  0  0  0  0
   -3.5724   -5.3625    0.0000 N   0  0  0  0  0  0  0  0  0  0  0  0
   -2.8579   -4.1250    0.0000 C   0  0  0  0  0  0  0  0  0  0  0  0
   -2.1434   -3.7125    0.0000 C   0  0  0  0  0  0  0  0  0  0  0  0
   -0.0000   -4.1250    0.0000 C   0  0  0  0  0  0  0  0  0  0  0  0
    0.7145   -3.7125    0.0000 C   0  0  0  0  0  0  0  0  0  0  0  0
    1.4289   -4.1250    0.0000 C   0  0  0  0  0  0  0  0  0  0  0  0
    1.4289   -4.9500    0.0000 C   0  0  0  0  0  0  0  0  0  0  0  0
    2.1434   -5.3625    0.0000 N   0  0  0  0  0  0  0  0  0  0  0  0
    0.7145   -5.3625    0.0000 C   0  0  0  0  0  0  0  0  0  0  0  0
   -0.0000   -4.9500    0.0000 C   0  0  0  0  0  0  0  0  0  0  0  0
  1  2  1  0  0  0  0
  2  3  4  0  0  0  0
  3  4  4  0  0  0  0
  4  5  4  0  0  0  0
  5  6  4  0  0  0  0
  6  7  4  0  0  0  0
  2  7  4  0  0  0  0
  5  8  1  0  0  0  0
  8  9  2  0  0  0  0
  9 10  1  0  0  0  0
 10 11  2  0  0  0  0
 11 12  1  0  0  0  0
 12 13  2  0  0  0  0
 12 14  1  0  0  0  0
 14 15  2  0  0  0  0
  9 15  1  0  0  0  0
  8 16  1  0  0  0  0
 16 17  4  0  0  0  0
 17 18  4  0  0  0  0
 18 19  4  0  0  0  0
 19 20  1  0  0  0  0
 19 21  4  0  0  0  0
 21 22  4  0  0  0  0
 16 22  4  0  0  0  0
M  END

> <ChembankId>
1007091

> <SMILES>
Nc1ccc(cc1)C(=C2C=CC(=N)C=C2)c3ccc(N)cc3

> <InChI>
1/C19H17N3/c20-16-7-1-13(2-8-16)19(14-3-9-17(21)10-4-14)15-5-11-18(22)12-6-15/h1-12,20H,21-22H2

$$$$
1011817
  Marvin  11101114192D          

 27 30  0  0  0  0            999 V2000
    3.5330   -3.2587    0.0000 C   0  0  0  0  0  0  0  0  0  0  0  0
    3.8928   -2.5163    0.0000 C   0  0  0  0  0  0  0  0  0  0  0  0
    4.4247   -3.1470    0.0000 C   0  0  0  0  0  0  0  0  0  0  0  0
    5.2368   -3.0018    0.0000 C   0  0  0  0  0  0  0  0  0  0  0  0
    5.7686   -3.6325    0.0000 O   0  0  0  0  0  0  0  0  0  0  0  0
    5.5171   -2.2259    0.0000 C   0  0  0  0  0  0  0  0  0  0  0  0
    6.0489   -2.8566    0.0000 F   0  0  0  0  0  0  0  0  0  0  0  0
    4.9853   -1.5952    0.0000 C   0  0  0  0  0  0  0  0  0  0  0  0
    5.2655   -0.8192    0.0000 C   0  0  0  0  0  0  0  0  0  0  0  0
    6.0777   -0.6740    0.0000 C   0  0  0  0  0  0  0  0  0  0  0  0
    6.6095   -1.3047    0.0000 C   0  0  0  0  0  0  0  0  0  0  0  0
    7.4216   -1.1595    0.0000 C   0  0  0  0  0  0  0  0  0  0  0  0
    7.9534   -1.7902    0.0000 C   0  0  0  0  0  0  0  0  0  0  0  0
    8.7655   -1.6450    0.0000 O   0  0  0  0  0  0  0  0  0  0  0  0
    7.6731   -2.5662    0.0000 C   0  0  0  0  0  0  0  0  0  0  0  0
    6.8610   -2.7114    0.0000 C   0  0  0  0  0  0  0  0  0  0  0  0
    6.3292   -2.0807    0.0000 C   0  0  0  0  0  0  0  0  0  0  0  0
    6.5585   -2.8731    0.0000 C   0  0  0  0  0  0  0  0  0  0  0  0
    4.1731   -1.7404    0.0000 C   0  0  0  0  0  0  0  0  0  0  0  0
    3.5218   -1.2340    0.0000 C   0  0  0  0  0  0  0  0  0  0  0  0
    2.8390   -1.6970    0.0000 C   0  0  0  0  0  0  0  0  0  0  0  0
    3.0683   -2.4895    0.0000 C   0  0  0  0  0  0  0  0  0  0  0  0
    2.9469   -3.3055    0.0000 O   0  0  0  0  0  0  0  0  0  0  0  0
    2.3074   -2.8084    0.0000 C   0  0  0  0  0  0  0  0  0  0  0  0
    1.6508   -2.3089    0.0000 O   0  0  0  0  0  0  0  0  0  0  0  0
    2.2031   -3.6268    0.0000 C   0  0  0  0  0  0  0  0  0  0  0  0
    2.8597   -4.1263    0.0000 O   0  0  0  0  0  0  0  0  0  0  0  0
  1  2  1  0  0  0  0
  2  3  1  0  0  0  0
  3  4  1  0  0  0  0
  4  5  1  0  0  0  0
  4  6  1  0  0  0  0
  6  7  1  0  0  0  0
  6  8  1  0  0  0  0
  8  9  1  0  0  0  0
  9 10  1  0  0  0  0
 10 11  1  0  0  0  0
 11 12  2  0  0  0  0
 12 13  1  0  0  0  0
 13 14  2  0  0  0  0
 13 15  1  0  0  0  0
 15 16  2  0  0  0  0
 16 17  1  0  0  0  0
 11 17  1  0  0  0  0
  6 17  1  0  0  0  0
 17 18  1  0  0  0  0
  8 19  1  0  0  0  0
  2 19  1  0  0  0  0
 19 20  1  0  0  0  0
 20 21  1  0  0  0  0
 21 22  1  0  0  0  0
  2 22  1  0  0  0  0
 22 23  1  0  0  0  0
 22 24  1  0  0  0  0
 24 25  2  0  0  0  0
 24 26  1  0  0  0  0
 26 27  1  0  0  0  0
M  END

> <ChembankId>
1011817

> <SMILES>
CC12CC(O)C3(F)C(CCC4=CC(=O)C=CC43C)C2CCC1(O)C(=O)CO

> <InChI>
1/C21H27FO5/c1-18-7-5-13(24)9-12(18)3-4-15-14-6-8-20(27,17(26)11-23)19(14,2)10-16(25)21(15,18)22/h5,7,9,14-16,23,25,27H,3-4,6,8,10-11H2,1-2H3/t14-,15-,16+,18-,19-,20+,21-/m0/s1

$$$$
4379
  Marvin  11101114192D          

 26 29  0  0  0  0            999 V2000
    1.4289    3.3000    0.0000 C   0  0  0  0  0  0  0  0  0  0  0  0
    2.1434    3.7125    0.0000 N   0  0  0  0  0  0  0  0  0  0  0  0
    2.1434    4.5375    0.0000 C   0  0  0  0  0  0  0  0  0  0  0  0
    2.8579    4.9500    0.0000 C   0  0  0  0  0  0  0  0  0  0  0  0
    3.5724    4.5375    0.0000 C   0  0  0  0  0  0  0  0  0  0  0  0
    3.5724    3.7125    0.0000 C   0  0  0  0  0  0  0  0  0  0  0  0
    2.8579    3.3000    0.0000 C   0  0  0  0  0  0  0  0  0  0  0  0
    2.8579    2.4750    0.0000 C   0  0  0  0  0  0  0  0  0  0  0  0
    2.1434    2.0625    0.0000 C   0  0  0  0  0  0  0  0  0  0  0  0
    2.1434    1.2375    0.0000 N   0  0  0  0  0  0  0  0  0  0  0  0
    2.8579    0.8250    0.0000 C   0  0  0  0  0  0  0  0  0  0  0  0
    3.5724    1.2375    0.0000 C   0  0  0  0  0  0  0  0  0  0  0  0
    4.2868    0.8250    0.0000 C   0  0  0  0  0  0  0  0  0  0  0  0
    4.2868   -0.0000    0.0000 C   0  0  0  0  0  0  0  0  0  0  0  0
    3.5724   -0.4125    0.0000 C   0  0  0  0  0  0  0  0  0  0  0  0
    2.8579    0.0000    0.0000 C   0  0  0  0  0  0  0  0  0  0  0  0
    2.1434   -0.4125    0.0000 S   0  0  0  0  0  0  0  0  0  0  0  0
    1.4289    0.0000    0.0000 C   0  0  0  0  0  0  0  0  0  0  0  0
    0.7145   -0.4125    0.0000 C   0  0  0  0  0  0  0  0  0  0  0  0
    0.0000    0.0000    0.0000 C   0  0  0  0  0  0  0  0  0  0  0  0
    0.0000    0.8250    0.0000 C   0  0  0  0  0  0  0  0  0  0  0  0
    0.7145    1.2375    0.0000 C   0  0  0  0  0  0  0  0  0  0  0  0
    1.4289    0.8250    0.0000 C   0  0  0  0  0  0  0  0  0  0  0  0
   -0.7145    1.2375    0.0000 S   0  0  0  0  0  0  0  0  0  0  0  0
   -1.4289    0.8250    0.0000 O   0  0  0  0  0  0  0  0  0  0  0  0
   -0.7145    2.0625    0.0000 C   0  0  0  0  0  0  0  0  0  0  0  0
  1  2  1  0  0  0  0
  2  3  1  0  0  0  0
  3  4  1  0  0  0  0
  4  5  1  0  0  0  0
  5  6  1  0  0  0  0
  6  7  1  0  0  0  0
  2  7  1  0  0  0  0
  7  8  1  0  0  0  0
  8  9  1  0  0  0  0
  9 10  1  0  0  0  0
 10 11  1  0  0  0  0
 11 12  4  0  0  0  0
 12 13  4  0  0  0  0
 13 14  4  0  0  0  0
 14 15  4  0  0  0  0
 15 16  4  0  0  0  0
 11 16  4  0  0  0  0
 16 17  1  0  0  0  0
 17 18  1  0  0  0  0
 18 19  4  0  0  0  0
 19 20  4  0  0  0  0
 20 21  4  0  0  0  0
 21 22  4  0  0  0  0
 22 23  4  0  0  0  0
 10 23  1  0  0  0  0
 18 23  4  0  0  0  0
 21 24  1  0  0  0  0
 24 25  2  0  0  0  0
 24 26  1  0  0  0  0
M  END

> <ChembankId>
4379

> <SMILES>
CN1CCCCC1CCN2c3ccccc3Sc4ccc(cc24)S(=O)C

> <InChI>
1/C21H26N2OS2/c1-22-13-6-5-7-16(22)12-14-23-18-8-3-4-9-20(18)25-21-11-10-17(26(2)24)15-19(21)23/h3-4,8-11,15-16H,5-7,12-14H2,1-2H3

$$$$
1006453
  Marvin  11101114192D          

 11 12  0  0  0  0            999 V2000
    4.0668    2.3479    0.0000 N   0  0  0  0  0  0  0  0  0  0  0  0
    3.3523    1.9354    0.0000 C   0  0  0  0  0  0  0  0  0  0  0  0
    3.3523    1.1104    0.0000 N   0  0  0  0  0  0  0  0  0  0  0  0
    2.6378    0.6979    0.0000 C   0  0  0  0  0  0  0  0  0  0  0  0
    2.6378   -0.1271    0.0000 O   0  0  0  0  0  0  0  0  0  0  0  0
    1.9233    1.1104    0.0000 C   0  0  0  0  0  0  0  0  0  0  0  0
    1.1387    0.8555    0.0000 N   0  0  0  0  0  0  0  0  0  0  0  0
    0.6538    1.5229    0.0000 N   0  0  0  0  0  0  0  0  0  0  0  0
    1.1387    2.1904    0.0000 N   0  0  0  0  0  0  0  0  0  0  0  0
    1.9233    1.9354    0.0000 C   0  0  0  0  0  0  0  0  0  0  0  0
    2.6378    2.3479    0.0000 N   0  0  0  0  0  0  0  0  0  0  0  0
  1  2  1  0  0  0  0
  2  3  4  0  0  0  0
  3  4  4  0  0  0  0
  4  5  1  0  0  0  0
  4  6  4  0  0  0  0
  6  7  4  0  0  0  0
  7  8  4  0  0  0  0
  8  9  4  0  0  0  0
  9 10  4  0  0  0  0
  6 10  4  0  0  0  0
 10 11  4  0  0  0  0
  2 11  4  0  0  0  0
M  STY  1   1 DAT
M  SAL   1  1   9
M  SDT   1 MRV_IMPLICIT_H                                        
M  SDD   1     0.0000    0.0000    DR    ALL  0       0  
M  SED   1 IMPL_H1
M  END

> <ChembankId>
1006453

> <SMILES>
Nc1nc(O)c2nn[nH]c2n1

> <InChI>
1/C4H4N6O/c5-4-6-2-1(3(11)7-4)8-10-9-2/h(H4,5,6,7,8,9,10,11)

$$$$
4359
  Marvin  11101114192D          

 15 15  0  0  0  0            999 V2000
   -2.8579   -3.3000    0.0000 Cl  0  0  0  0  0  0  0  0  0  0  0  0
   -2.1434   -2.8875    0.0000 C   0  0  0  0  0  0  0  0  0  0  0  0
   -1.4289   -3.3000    0.0000 C   0  0  0  0  0  0  0  0  0  0  0  0
   -0.7145   -2.8875    0.0000 N   0  0  0  0  0  0  0  0  0  0  0  0
   -0.7145   -2.0625    0.0000 N   0  0  0  0  0  0  0  0  0  0  0  0
    0.0000   -1.6500    0.0000 O   0  0  0  0  0  0  0  0  0  0  0  0
    0.0000   -3.3000    0.0000 C   0  0  0  0  0  0  0  0  0  0  0  0
    0.0000   -4.1250    0.0000 O   0  0  0  0  0  0  0  0  0  0  0  0
    0.7145   -2.8875    0.0000 N   0  0  0  0  0  0  0  0  0  0  0  0
    1.4289   -3.3000    0.0000 C   0  0  0  0  0  0  0  0  0  0  0  0
    2.1434   -2.8875    0.0000 C   0  0  0  0  0  0  0  0  0  0  0  0
    2.8579   -3.3000    0.0000 C   0  0  0  0  0  0  0  0  0  0  0  0
    2.8579   -4.1250    0.0000 C   0  0  0  0  0  0  0  0  0  0  0  0
    2.1434   -4.5375    0.0000 C   0  0  0  0  0  0  0  0  0  0  0  0
    1.4289   -4.1250    0.0000 C   0  0  0  0  0  0  0  0  0  0  0  0
  1  2  1  0  0  0  0
  2  3  1  0  0  0  0
  3  4  1  0  0  0  0
  4  5  1  0  0  0  0
  5  6  2  0  0  0  0
  4  7  1  0  0  0  0
  7  8  2  0  0  0  0
  7  9  1  0  0  0  0
  9 10  1  0  0  0  0
 10 11  1  0  0  0  0
 11 12  1  0  0  0  0
 12 13  1  0  0  0  0
 13 14  1  0  0  0  0
 14 15  1  0  0  0  0
 10 15  1  0  0  0  0
M  END

> <ChembankId>
4359

> <SMILES>
ClCCN(N=O)C(=O)NC1CCCCC1

> <InChI>
1/C9H16ClN3O2/c10-6-7-13(12-15)9(14)11-8-4-2-1-3-5-8/h8H,1-7H2,(H,11,14)

$$$$
1022180
  Marvin  11101114192D          

 29 32  0  0  0  0            999 V2000
   -2.1434   -2.8875    0.0000 O   0  0  0  0  0  0  0  0  0  0  0  0
   -1.4289   -2.4750    0.0000 C   0  0  0  0  0  0  0  0  0  0  0  0
   -1.4289   -1.6500    0.0000 O   0  0  0  0  0  0  0  0  0  0  0  0
   -0.7145   -2.8875    0.0000 C   0  0  0  0  0  0  0  0  0  0  0  0
   -0.7145   -3.7125    0.0000 C   0  0  0  0  0  0  0  0  0  0  0  0
    0.0000   -4.1250    0.0000 C   0  0  0  0  0  0  0  0  0  0  0  0
    0.0000   -4.9500    0.0000 C   0  0  0  0  0  0  0  0  0  0  0  0
    0.7145   -5.3625    0.0000 C   0  0  0  0  0  0  0  0  0  0  0  0
    1.4289   -4.9500    0.0000 C   0  0  0  0  0  0  0  0  0  0  0  0
    1.4289   -4.1250    0.0000 C   0  0  0  0  0  0  0  0  0  0  0  0
    0.7145   -3.7125    0.0000 C   0  0  0  0  0  0  0  0  0  0  0  0
    0.7145   -2.8875    0.0000 C   0  0  0  0  0  0  0  0  0  0  0  0
    1.4289   -2.4750    0.0000 C   0  0  0  0  0  0  0  0  0  0  0  0
    1.4289   -1.6500    0.0000 C   0  0  0  0  0  0  0  0  0  0  0  0
    0.7145   -1.2375    0.0000 C   0  0  0  0  0  0  0  0  0  0  0  0
    0.0000   -1.6500    0.0000 O   0  0  0  0  0  0  0  0  0  0  0  0
    0.7145   -0.4125    0.0000 C   0  0  0  0  0  0  0  0  0  0  0  0
    1.4289    0.0000    0.0000 C   0  0  0  0  0  0  0  0  0  0  0  0
    2.1434   -0.4125    0.0000 C   0  0  0  0  0  0  0  0  0  0  0  0
    2.8579    0.0000    0.0000 C   0  0  0  0  0  0  0  0  0  0  0  0
    3.5724   -0.4125    0.0000 C   0  0  0  0  0  0  0  0  0  0  0  0
    3.5724   -1.2375    0.0000 C   0  0  0  0  0  0  0  0  0  0  0  0
    2.8579   -1.6500    0.0000 C   0  0  0  0  0  0  0  0  0  0  0  0
    2.1434   -1.2375    0.0000 C   0  0  0  0  0  0  0  0  0  0  0  0
    0.0000    0.0000    0.0000 C   0  0  0  0  0  0  0  0  0  0  0  0
    0.0000    0.8250    0.0000 O   0  0  0  0  0  0  0  0  0  0  0  0
   -0.7145   -0.4125    0.0000 O   0  0  0  0  0  0  0  0  0  0  0  0
    0.0000   -2.4750    0.0000 C   0  0  0  0  0  0  0  0  0  0  0  0
   -0.4849   -1.8076    0.0000 O   0  0  0  0  0  0  0  0  0  0  0  0
  1  2  1  0  0  0  0
  2  3  2  0  0  0  0
  2  4  1  0  0  0  0
  4  5  4  0  0  0  0
  5  6  4  0  0  0  0
  6  7  4  0  0  0  0
  7  8  4  0  0  0  0
  8  9  4  0  0  0  0
  9 10  4  0  0  0  0
 10 11  4  0  0  0  0
  6 11  4  0  0  0  0
 11 12  4  0  0  0  0
 12 13  1  0  0  0  0
 13 14  1  0  0  0  0
 14 15  4  0  0  0  0
 15 16  1  0  0  0  0
 15 17  4  0  0  0  0
 17 18  4  0  0  0  0
 18 19  4  0  0  0  0
 19 20  4  0  0  0  0
 20 21  4  0  0  0  0
 21 22  4  0  0  0  0
 22 23  4  0  0  0  0
 23 24  4  0  0  0  0
 14 24  4  0  0  0  0
 19 24  4  0  0  0  0
 17 25  1  0  0  0  0
 25 26  2  0  0  0  0
 25 27  1  0  0  0  0
 12 28  4  0  0  0  0
  4 28  4  0  0  0  0
 28 29  1  0  0  0  0
M  END

> <ChembankId>
1022180

> <SMILES>
OC(=O)c1cc2ccccc2c(Cc3c(O)c(cc4ccccc34)C(=O)O)c1O

> <InChI>
1/C23H16O6/c24-20-16(14-7-3-1-5-12(14)9-18(20)22(26)27)11-17-15-8-4-2-6-13(15)10-19(21(17)25)23(28)29/h1-10,24-25H,11H2,(H,26,27)(H,28,29)

$$$$
1023517
  Marvin  11101114192D          

 14 14  0  0  0  0            999 V2000
    1.4289   -2.4750    0.0000 N   0  0  0  0  0  0  0  0  0  0  0  0
    1.4289   -1.6500    0.0000 C   0  0  0  0  0  0  0  0  0  0  0  0
    2.1434   -1.2375    0.0000 O   0  0  0  0  0  0  0  0  0  0  0  0
    0.7145   -1.2375    0.0000 N   0  0  0  0  0  0  0  0  0  0  0  0
    0.7145   -0.4125    0.0000 C   0  0  0  0  0  0  0  0  0  0  0  0
   -0.0000    0.0000    0.0000 C   0  0  0  0  0  0  0  0  0  0  0  0
    0.0000    0.8250    0.0000 C   0  0  0  0  0  0  0  0  0  0  0  0
    0.7145    1.2375    0.0000 C   0  0  0  0  0  0  0  0  0  0  0  0
    1.4289    0.8250    0.0000 C   0  0  0  0  0  0  0  0  0  0  0  0
    1.4289    0.0000    0.0000 C   0  0  0  0  0  0  0  0  0  0  0  0
    0.7145    2.0625    0.0000 As  0  0  0  0  0  0  0  0  0  0  0  0
    0.7145    2.8875    0.0000 O   0  0  0  0  0  0  0  0  0  0  0  0
    1.5395    2.0625    0.0000 O   0  0  0  0  0  0  0  0  0  0  0  0
   -0.1105    2.0625    0.0000 O   0  0  0  0  0  0  0  0  0  0  0  0
  1  2  1  0  0  0  0
  2  3  2  0  0  0  0
  2  4  1  0  0  0  0
  4  5  1  0  0  0  0
  5  6  4  0  0  0  0
  6  7  4  0  0  0  0
  7  8  4  0  0  0  0
  8  9  4  0  0  0  0
  9 10  4  0  0  0  0
  5 10  4  0  0  0  0
  8 11  1  0  0  0  0
 11 12  2  0  0  0  0
 11 13  1  0  0  0  0
 11 14  1  0  0  0  0
M  END

> <ChembankId>
1023517

> <SMILES>
NC(=O)Nc1ccc(cc1)[As](=O)(O)O

> <InChI>
1/C7H9AsN2O4/c9-7(11)10-6-3-1-5(2-4-6)8(12,13)14/h1-4H,(H3,9,10,11)(H2,12,13,14)

$$$$
1649
  Marvin  11101114192D          

 33 34  0  0  1  0            999 V2000
   -2.0688   -3.3909    0.0000 C   0  0  0  0  0  0  0  0  0  0  0  0
   -1.3252   -3.0336    0.0000 O   0  0  0  0  0  0  0  0  0  0  0  0
   -0.6440   -3.4989    0.0000 C   0  0  0  0  0  0  0  0  0  0  0  0
    0.0996   -3.1416    0.0000 C   0  0  0  0  0  0  0  0  0  0  0  0
    0.7809   -3.6069    0.0000 C   0  0  0  0  0  0  0  0  0  0  0  0
    0.7186   -4.4295    0.0000 C   0  0  0  0  0  0  0  0  0  0  0  0
    1.3998   -4.8948    0.0000 C   0  0  0  0  0  0  0  0  0  0  0  0
    2.1434   -4.5375    0.0000 C   0  0  0  0  0  0  0  0  0  0  0  0
    2.8247   -5.0028    0.0000 N   0  0  0  0  0  0  0  0  0  0  0  0
    2.7623   -5.8254    0.0000 C   0  0  0  0  0  0  0  0  0  0  0  0
    3.5683   -4.6455    0.0000 C   0  0  0  0  0  0  0  0  0  0  0  0
    4.2495   -5.1108    0.0000 C   0  0  0  0  0  0  0  0  0  0  0  0
    4.9931   -4.7535    0.0000 C   0  0  0  0  0  0  0  0  0  0  0  0
    5.6744   -5.2188    0.0000 C   0  0  2  0  0  0  0  0  0  0  0  0
    5.2091   -5.9000    0.0000 C   0  0  0  0  0  0  0  0  0  0  0  0
    4.7438   -6.5813    0.0000 N   0  0  0  0  0  0  0  0  0  0  0  0
    6.1397   -4.5375    0.0000 C   0  0  0  0  0  0  0  0  0  0  0  0
    5.7824   -3.7939    0.0000 C   0  0  0  0  0  0  0  0  0  0  0  0
    6.9623   -4.5998    0.0000 C   0  0  0  0  0  0  0  0  0  0  0  0
    6.3556   -5.6841    0.0000 C   0  0  0  0  0  0  0  0  0  0  0  0
    7.0992   -5.3267    0.0000 C   0  0  0  0  0  0  0  0  0  0  0  0
    7.7805   -5.7920    0.0000 C   0  0  0  0  0  0  0  0  0  0  0  0
    7.7182   -6.6147    0.0000 C   0  0  0  0  0  0  0  0  0  0  0  0
    8.3994   -7.0800    0.0000 O   0  0  0  0  0  0  0  0  0  0  0  0
    9.1430   -6.7227    0.0000 C   0  0  0  0  0  0  0  0  0  0  0  0
    6.9746   -6.9720    0.0000 C   0  0  0  0  0  0  0  0  0  0  0  0
    6.9122   -7.7947    0.0000 O   0  0  0  0  0  0  0  0  0  0  0  0
    6.1686   -8.1520    0.0000 C   0  0  0  0  0  0  0  0  0  0  0  0
    6.2933   -6.5067    0.0000 C   0  0  0  0  0  0  0  0  0  0  0  0
   -0.0250   -4.7869    0.0000 C   0  0  0  0  0  0  0  0  0  0  0  0
   -0.7063   -4.3215    0.0000 C   0  0  0  0  0  0  0  0  0  0  0  0
   -1.4499   -4.6789    0.0000 O   0  0  0  0  0  0  0  0  0  0  0  0
   -2.1312   -4.2136    0.0000 C   0  0  0  0  0  0  0  0  0  0  0  0
  1  2  1  0  0  0  0
  2  3  1  0  0  0  0
  3  4  4  0  0  0  0
  4  5  4  0  0  0  0
  5  6  4  0  0  0  0
  6  7  1  0  0  0  0
  7  8  1  0  0  0  0
  8  9  1  0  0  0  0
  9 10  1  0  0  0  0
  9 11  1  0  0  0  0
 11 12  1  0  0  0  0
 12 13  1  0  0  0  0
 13 14  1  0  0  0  0
 14 15  1  0  0  0  0
 15 16  3  0  0  0  0
 14 17  1  1  0  0  0
 17 18  1  0  0  0  0
 17 19  1  0  0  0  0
 14 20  1  6  0  0  0
 20 21  4  0  0  0  0
 21 22  4  0  0  0  0
 22 23  4  0  0  0  0
 23 24  1  0  0  0  0
 24 25  1  0  0  0  0
 23 26  4  0  0  0  0
 26 27  1  0  0  0  0
 27 28  1  0  0  0  0
 26 29  4  0  0  0  0
 20 29  4  0  0  0  0
  6 30  4  0  0  0  0
 30 31  4  0  0  0  0
  3 31  4  0  0  0  0
 31 32  1  0  0  0  0
 32 33  1  0  0  0  0
M  END

> <ChembankId>
1649

> <SMILES>
COc1ccc(CCN(C)CCC[C@](C#N)(C(C)C)c2ccc(OC)c(OC)c2)cc1OC

> <InChI>
1/C27H38N2O4/c1-20(2)27(19-28,22-10-12-24(31-5)26(18-22)33-7)14-8-15-29(3)16-13-21-9-11-23(30-4)25(17-21)32-6/h9-12,17-18,20H,8,13-16H2,1-7H3/t27-/m1/s1

$$$$
1050032
  Marvin  11101114192D          

 13 12  0  0  0  0            999 V2000
    5.4730    3.9849    0.0000 N   0  0  0  0  0  0  0  0  0  0  0  0
    6.1875    3.5724    0.0000 C   0  0  0  0  0  0  0  0  0  0  0  0
    6.9020    3.9849    0.0000 C   0  0  0  0  0  0  0  0  0  0  0  0
    7.6164    3.5724    0.0000 N   0  0  0  0  0  0  0  0  0  0  0  0
    8.3309    3.9849    0.0000 C   0  0  0  0  0  0  0  0  0  0  0  0
    9.0454    3.5724    0.0000 C   0  0  0  0  0  0  0  0  0  0  0  0
    9.7599    3.9849    0.0000 N   0  0  0  0  0  0  0  0  0  0  0  0
   10.4743    3.5724    0.0000 C   0  0  0  0  0  0  0  0  0  0  0  0
   11.1888    3.9849    0.0000 C   0  0  0  0  0  0  0  0  0  0  0  0
   11.9033    3.5724    0.0000 N   0  0  0  0  0  0  0  0  0  0  0  0
   12.6177    3.9849    0.0000 C   0  0  0  0  0  0  0  0  0  0  0  0
   13.3322    3.5724    0.0000 C   0  0  0  0  0  0  0  0  0  0  0  0
   14.0467    3.9849    0.0000 N   0  0  0  0  0  0  0  0  0  0  0  0
  1  2  1  0  0  0  0
  2  3  1  0  0  0  0
  3  4  1  0  0  0  0
  4  5  1  0  0  0  0
  5  6  1  0  0  0  0
  6  7  1  0  0  0  0
  7  8  1  0  0  0  0
  8  9  1  0  0  0  0
  9 10  1  0  0  0  0
 10 11  1  0  0  0  0
 11 12  1  0  0  0  0
 12 13  1  0  0  0  0
M  END

> <ChembankId>
1050032

> <SMILES>
NCCNCCNCCNCCN

> <InChI>
1/C8H23N5/c9-1-3-11-5-7-13-8-6-12-4-2-10/h11-13H,1-10H2

$$$$
3199
  Marvin  11101114192D          

 16 16  0  0  0  0            999 V2000
    2.1434   -2.8875    0.0000 C   0  0  0  0  0  0  0  0  0  0  0  0
    1.4289   -2.4750    0.0000 N   0  0  0  0  0  0  0  0  0  0  0  0
    1.4289   -1.6500    0.0000 N   0  0  0  0  0  0  0  0  0  0  0  0
    0.7145   -1.2375    0.0000 C   0  0  0  0  0  0  0  0  0  0  0  0
    0.7145   -0.4125    0.0000 C   0  0  0  0  0  0  0  0  0  0  0  0
   -0.0000    0.0000    0.0000 C   0  0  0  0  0  0  0  0  0  0  0  0
    0.0000    0.8250    0.0000 C   0  0  0  0  0  0  0  0  0  0  0  0
    0.7145    1.2375    0.0000 C   0  0  0  0  0  0  0  0  0  0  0  0
    1.4289    0.8250    0.0000 C   0  0  0  0  0  0  0  0  0  0  0  0
    1.4289    0.0000    0.0000 C   0  0  0  0  0  0  0  0  0  0  0  0
    0.7145    2.0625    0.0000 C   0  0  0  0  0  0  0  0  0  0  0  0
    1.4289    2.4750    0.0000 O   0  0  0  0  0  0  0  0  0  0  0  0
    0.0000    2.4750    0.0000 N   0  0  0  0  0  0  0  0  0  0  0  0
    0.0000    3.3000    0.0000 C   0  0  0  0  0  0  0  0  0  0  0  0
   -0.7145    3.7125    0.0000 C   0  0  0  0  0  0  0  0  0  0  0  0
    0.7145    3.7125    0.0000 C   0  0  0  0  0  0  0  0  0  0  0  0
  1  2  1  0  0  0  0
  2  3  1  0  0  0  0
  3  4  1  0  0  0  0
  4  5  1  0  0  0  0
  5  6  4  0  0  0  0
  6  7  4  0  0  0  0
  7  8  4  0  0  0  0
  8  9  4  0  0  0  0
  9 10  4  0  0  0  0
  5 10  4  0  0  0  0
  8 11  1  0  0  0  0
 11 12  2  0  0  0  0
 11 13  1  0  0  0  0
 13 14  1  0  0  0  0
 14 15  1  0  0  0  0
 14 16  1  0  0  0  0
M  END

> <ChembankId>
3199

> <SMILES>
CNNCc1ccc(cc1)C(=O)NC(C)C

> <InChI>
1/C12H19N3O/c1-9(2)15-12(16)11-6-4-10(5-7-11)8-14-13-3/h4-7,9,13-14H,8H2,1-3H3,(H,15,16)

$$$$
1054660
  Marvin  11101114192D          

 14 14  0  0  0  0            999 V2000
    2.0198    0.8843    0.0000 C   0  0  0  0  0  0  0  0  0  0  0  0
    1.2352    0.6294    0.0000 C   0  0  0  0  0  0  0  0  0  0  0  0
    0.9803   -0.1553    0.0000 N   0  0  0  0  0  0  0  0  0  0  0  0
    0.1553   -0.1553    0.0000 C   0  0  0  0  0  0  0  0  0  0  0  0
   -0.0997    0.6294    0.0000 C   0  0  0  0  0  0  0  0  0  0  0  0
   -0.8843    0.8843    0.0000 N   0  3  0  0  0  0  0  0  0  0  0  0
   -1.0558    1.6913    0.0000 O   0  0  0  0  0  0  0  0  0  0  0  0
   -1.4974    0.3323    0.0000 O   0  5  0  0  0  0  0  0  0  0  0  0
    0.5678    1.1143    0.0000 N   0  0  0  0  0  0  0  0  0  0  0  0
    0.5678    1.9393    0.0000 C   0  0  0  0  0  0  0  0  0  0  0  0
    1.2822    2.3518    0.0000 C   0  0  0  0  0  0  0  0  0  0  0  0
    1.2822    3.1768    0.0000 O   0  0  0  0  0  0  0  0  0  0  0  0
    1.9967    1.9393    0.0000 C   0  0  0  0  0  0  0  0  0  0  0  0
    2.7112    2.3518    0.0000 Cl  0  0  0  0  0  0  0  0  0  0  0  0
  1  2  1  0  0  0  0
  2  3  4  0  0  0  0
  3  4  4  0  0  0  0
  4  5  4  0  0  0  0
  5  6  1  0  0  0  0
  6  7  2  0  0  0  0
  6  8  1  0  0  0  0
  5  9  4  0  0  0  0
  2  9  4  0  0  0  0
  9 10  1  0  0  0  0
 10 11  1  0  0  0  0
 11 12  1  0  0  0  0
 11 13  1  0  0  0  0
 13 14  1  0  0  0  0
M  CHG  2   6   1   8  -1
M  END

> <ChembankId>
1054660

> <SMILES>
Cc1ncc([N+](=O)[O-])n1CC(O)CCl

> <InChI>
1/C7H10ClN3O3/c1-5-9-3-7(11(13)14)10(5)4-6(12)2-8/h3,6,12H,2,4H2,1H3

$$$$
2120971
  Marvin  11101114192D          

 22 25  0  0  0  0            999 V2000
   -0.7145    2.0625    0.0000 C   0  0  0  0  0  0  0  0  0  0  0  0
   -0.0000    2.4750    0.0000 N   0  0  0  0  0  0  0  0  0  0  0  0
   -0.0000    3.3000    0.0000 C   0  0  0  0  0  0  0  0  0  0  0  0
    0.7145    3.7125    0.0000 C   0  0  0  0  0  0  0  0  0  0  0  0
    1.4289    3.3000    0.0000 C   0  0  0  0  0  0  0  0  0  0  0  0
    1.4289    2.4750    0.0000 C   0  0  0  0  0  0  0  0  0  0  0  0
    2.1434    2.0625    0.0000 C   0  0  0  0  0  0  0  0  0  0  0  0
    2.1434    1.2375    0.0000 C   0  0  0  0  0  0  0  0  0  0  0  0
    2.8579    0.8250    0.0000 C   0  0  0  0  0  0  0  0  0  0  0  0
    3.5724    1.2375    0.0000 C   0  0  0  0  0  0  0  0  0  0  0  0
    4.2868    0.8250    0.0000 C   0  0  0  0  0  0  0  0  0  0  0  0
    4.2868   -0.0000    0.0000 C   0  0  0  0  0  0  0  0  0  0  0  0
    3.5724   -0.4125    0.0000 C   0  0  0  0  0  0  0  0  0  0  0  0
    2.8579    0.0000    0.0000 C   0  0  0  0  0  0  0  0  0  0  0  0
    2.1434   -0.4125    0.0000 S   0  0  0  0  0  0  0  0  0  0  0  0
    1.4289    0.0000    0.0000 C   0  0  0  0  0  0  0  0  0  0  0  0
    0.7145   -0.4125    0.0000 C   0  0  0  0  0  0  0  0  0  0  0  0
    0.0000    0.0000    0.0000 C   0  0  0  0  0  0  0  0  0  0  0  0
    0.0000    0.8250    0.0000 C   0  0  0  0  0  0  0  0  0  0  0  0
    0.7145    1.2375    0.0000 C   0  0  0  0  0  0  0  0  0  0  0  0
    1.4289    0.8250    0.0000 C   0  0  0  0  0  0  0  0  0  0  0  0
    0.7145    2.0625    0.0000 C   0  0  0  0  0  0  0  0  0  0  0  0
  1  2  1  0  0  0  0
  2  3  1  0  0  0  0
  3  4  1  0  0  0  0
  4  5  1  0  0  0  0
  5  6  1  0  0  0  0
  6  7  1  0  0  0  0
  7  8  1  0  0  0  0
  8  9  1  0  0  0  0
  9 10  4  0  0  0  0
 10 11  4  0  0  0  0
 11 12  4  0  0  0  0
 12 13  4  0  0  0  0
 13 14  4  0  0  0  0
  9 14  4  0  0  0  0
 14 15  1  0  0  0  0
 15 16  1  0  0  0  0
 16 17  4  0  0  0  0
 17 18  4  0  0  0  0
 18 19  4  0  0  0  0
 19 20  4  0  0  0  0
 20 21  4  0  0  0  0
  8 21  1  0  0  0  0
 16 21  4  0  0  0  0
  6 22  1  0  0  0  0
  2 22  1  0  0  0  0
M  END

> <ChembankId>
2120971

> <SMILES>
CN1CCCC(CC2c3ccccc3Sc4ccccc24)C1

> <InChI>
1/C20H23NS/c1-21-12-6-7-15(14-21)13-18-16-8-2-4-10-19(16)22-20-11-5-3-9-17(18)20/h2-5,8-11,15,18H,6-7,12-14H2,1H3

$$$$
1999
  Marvin  11101114192D          

 13 14  0  0  0  0            999 V2000
    1.4289   -2.4750    0.0000 O   0  0  0  0  0  0  0  0  0  0  0  0
    1.4289   -1.6500    0.0000 C   0  0  0  0  0  0  0  0  0  0  0  0
    0.7145   -1.2375    0.0000 C   0  0  0  0  0  0  0  0  0  0  0  0
    0.0000   -1.6500    0.0000 I   0  0  0  0  0  0  0  0  0  0  0  0
    0.7145   -0.4125    0.0000 C   0  0  0  0  0  0  0  0  0  0  0  0
    1.4289    0.0000    0.0000 C   0  0  0  0  0  0  0  0  0  0  0  0
    1.4289    0.8250    0.0000 Cl  0  0  0  0  0  0  0  0  0  0  0  0
    2.1434   -0.4125    0.0000 C   0  0  0  0  0  0  0  0  0  0  0  0
    2.8579    0.0000    0.0000 C   0  0  0  0  0  0  0  0  0  0  0  0
    3.5724   -0.4125    0.0000 C   0  0  0  0  0  0  0  0  0  0  0  0
    3.5724   -1.2375    0.0000 C   0  0  0  0  0  0  0  0  0  0  0  0
    2.8579   -1.6500    0.0000 N   0  0  0  0  0  0  0  0  0  0  0  0
    2.1434   -1.2375    0.0000 C   0  0  0  0  0  0  0  0  0  0  0  0
  1  2  1  0  0  0  0
  2  3  4  0  0  0  0
  3  4  1  0  0  0  0
  3  5  4  0  0  0  0
  5  6  4  0  0  0  0
  6  7  1  0  0  0  0
  6  8  4  0  0  0  0
  8  9  4  0  0  0  0
  9 10  4  0  0  0  0
 10 11  4  0  0  0  0
 11 12  4  0  0  0  0
 12 13  4  0  0  0  0
  2 13  4  0  0  0  0
  8 13  4  0  0  0  0
M  END

> <ChembankId>
1999

> <SMILES>
Oc1c(I)cc(Cl)c2cccnc12

> <InChI>
1/C9H5ClINO/c10-6-4-7(11)9(13)8-5(6)2-1-3-12-8/h1-4,13H

$$$$
2121358
  Marvin  11101114192D          

 23 26  0  0  0  0            999 V2000
   -1.0314   -2.0375    0.0000 O   0  0  0  0  0  0  0  0  0  0  0  0
   -0.4595   -2.6321    0.0000 C   0  0  0  0  0  0  0  0  0  0  0  0
   -1.0541   -3.2040    0.0000 C   0  0  0  0  0  0  0  0  0  0  0  0
   -0.8561   -4.0049    0.0000 C   0  0  0  0  0  0  0  0  0  0  0  0
   -1.4507   -4.5768    0.0000 N   0  0  0  0  0  0  0  0  0  0  0  0
   -1.2528   -5.3777    0.0000 C   0  0  0  0  0  0  0  0  0  0  0  0
   -1.8474   -5.9496    0.0000 C   0  0  0  0  0  0  0  0  0  0  0  0
   -2.6399   -5.7206    0.0000 C   0  0  0  0  0  0  0  0  0  0  0  0
   -2.8379   -4.9197    0.0000 C   0  0  0  0  0  0  0  0  0  0  0  0
   -2.2433   -4.3478    0.0000 C   0  0  0  0  0  0  0  0  0  0  0  0
    0.1351   -2.0602    0.0000 C   0  0  0  0  0  0  0  0  0  0  0  0
    0.5004   -1.3997    0.0000 C   0  0  0  0  0  0  0  0  0  0  0  0
    1.1407   -0.9495    0.0000 C   0  0  0  0  0  0  0  0  0  0  0  0
    0.9807   -0.1341    0.0000 C   0  0  0  0  0  0  0  0  0  0  0  0
    0.9106   -1.6699    0.0000 C   0  0  0  0  0  0  0  0  0  0  0  0
    1.6411   -2.0402    0.0000 C   0  0  0  0  0  0  0  0  0  0  0  0
    1.9362   -1.4148    0.0000 C   0  0  0  0  0  0  0  0  0  0  0  0
    0.1124   -3.2267    0.0000 C   0  0  0  0  0  0  0  0  0  0  0  0
    0.9133   -3.0287    0.0000 C   0  0  0  0  0  0  0  0  0  0  0  0
    1.4852   -3.6233    0.0000 C   0  0  0  0  0  0  0  0  0  0  0  0
    1.2562   -4.4159    0.0000 C   0  0  0  0  0  0  0  0  0  0  0  0
    0.4553   -4.6139    0.0000 C   0  0  0  0  0  0  0  0  0  0  0  0
   -0.1166   -4.0193    0.0000 C   0  0  0  0  0  0  0  0  0  0  0  0
  1  2  1  0  0  0  0
  2  3  1  0  0  0  0
  3  4  1  0  0  0  0
  4  5  1  0  0  0  0
  5  6  1  0  0  0  0
  6  7  1  0  0  0  0
  7  8  1  0  0  0  0
  8  9  1  0  0  0  0
  9 10  1  0  0  0  0
  5 10  1  0  0  0  0
  2 11  1  0  0  0  0
 11 12  1  0  0  0  0
 12 13  1  0  0  0  0
 13 14  1  0  0  0  0
 14 15  1  0  0  0  0
 11 15  1  0  0  0  0
 15 16  1  0  0  0  0
 16 17  2  0  0  0  0
 13 17  1  0  0  0  0
  2 18  1  0  0  0  0
 18 19  4  0  0  0  0
 19 20  4  0  0  0  0
 20 21  4  0  0  0  0
 21 22  4  0  0  0  0
 22 23  4  0  0  0  0
 18 23  4  0  0  0  0
M  END

> <ChembankId>
2121358

> <SMILES>
OC(CCN1CCCCC1)(C2CC3CC2C=C3)c4ccccc4

> <InChI>
1/C21H29NO/c23-21(19-7-3-1-4-8-19,11-14-22-12-5-2-6-13-22)20-16-17-9-10-18(20)15-17/h1,3-4,7-10,17-18,20,23H,2,5-6,11-16H2

$$$$
2873
  Marvin  11101114192D          

 22 24  0  0  0  0            999 V2000
   -0.5837    0.0165    0.0000 C   0  0  0  0  0  0  0  0  0  0  0  0
   -0.1712   -0.6979    0.0000 C   0  0  0  0  0  0  0  0  0  0  0  0
    0.6538   -0.6979    0.0000 C   0  0  0  0  0  0  0  0  0  0  0  0
    1.1387   -0.0305    0.0000 O   0  0  0  0  0  0  0  0  0  0  0  0
    1.9233   -0.2854    0.0000 C   0  0  0  0  0  0  0  0  0  0  0  0
    2.6378    0.1271    0.0000 C   0  0  0  0  0  0  0  0  0  0  0  0
    3.3523   -0.2854    0.0000 C   0  0  0  0  0  0  0  0  0  0  0  0
    3.3523   -1.1104    0.0000 C   0  0  0  0  0  0  0  0  0  0  0  0
    2.6378   -1.5229    0.0000 C   0  0  0  0  0  0  0  0  0  0  0  0
    1.9233   -1.1104    0.0000 C   0  0  0  0  0  0  0  0  0  0  0  0
    1.1387   -1.3654    0.0000 C   0  0  0  0  0  0  0  0  0  0  0  0
    0.8838   -2.1500    0.0000 C   0  0  0  0  0  0  0  0  0  0  0  0
    1.4358   -2.7631    0.0000 O   0  0  0  0  0  0  0  0  0  0  0  0
    0.0768   -2.3215    0.0000 C   0  0  0  0  0  0  0  0  0  0  0  0
   -0.1781   -3.1062    0.0000 C   0  0  0  0  0  0  0  0  0  0  0  0
   -0.9851   -3.2777    0.0000 C   0  0  0  0  0  0  0  0  0  0  0  0
   -1.2400   -4.0623    0.0000 Br  0  0  0  0  0  0  0  0  0  0  0  0
   -1.5371   -2.6646    0.0000 C   0  0  0  0  0  0  0  0  0  0  0  0
   -2.3441   -2.8361    0.0000 O   0  0  0  0  0  0  0  0  0  0  0  0
   -1.2822   -1.8800    0.0000 C   0  0  0  0  0  0  0  0  0  0  0  0
   -1.8342   -1.2669    0.0000 Br  0  0  0  0  0  0  0  0  0  0  0  0
   -0.4752   -1.7084    0.0000 C   0  0  0  0  0  0  0  0  0  0  0  0
  1  2  1  0  0  0  0
  2  3  1  0  0  0  0
  3  4  4  0  0  0  0
  4  5  4  0  0  0  0
  5  6  4  0  0  0  0
  6  7  4  0  0  0  0
  7  8  4  0  0  0  0
  8  9  4  0  0  0  0
  9 10  4  0  0  0  0
  5 10  4  0  0  0  0
 10 11  4  0  0  0  0
  3 11  4  0  0  0  0
 11 12  1  0  0  0  0
 12 13  2  0  0  0  0
 12 14  1  0  0  0  0
 14 15  4  0  0  0  0
 15 16  4  0  0  0  0
 16 17  1  0  0  0  0
 16 18  4  0  0  0  0
 18 19  1  0  0  0  0
 18 20  4  0  0  0  0
 20 21  1  0  0  0  0
 20 22  4  0  0  0  0
 14 22  4  0  0  0  0
M  END

> <ChembankId>
2873

> <SMILES>
CCc1oc2ccccc2c1C(=O)c3cc(Br)c(O)c(Br)c3

> <InChI>
1/C17H12Br2O3/c1-2-13-15(10-5-3-4-6-14(10)22-13)16(20)9-7-11(18)17(21)12(19)8-9/h3-8,21H,2H2,1H3

$$$$
2898
  Marvin  11101114192D          

 17 18  0  0  0  0            999 V2000
    0.0000    0.0000    0.0000 C   0  0  0  0  0  0  0  0  0  0  0  0
    0.7145   -0.4125    0.0000 C   0  0  0  0  0  0  0  0  0  0  0  0
    1.4289    0.0000    0.0000 C   0  0  0  0  0  0  0  0  0  0  0  0
    2.1434   -0.4125    0.0000 C   0  0  0  0  0  0  0  0  0  0  0  0
    2.8579    0.0000    0.0000 C   0  0  0  0  0  0  0  0  0  0  0  0
    3.5724   -0.4125    0.0000 C   0  0  0  0  0  0  0  0  0  0  0  0
    3.5724   -1.2375    0.0000 C   0  0  0  0  0  0  0  0  0  0  0  0
    2.8579   -1.6500    0.0000 S   0  0  0  0  0  0  0  0  0  0  0  0
    3.3882   -2.2820    0.0000 O   0  0  0  0  0  0  0  0  0  0  0  0
    2.3276   -2.2820    0.0000 O   0  0  0  0  0  0  0  0  0  0  0  0
    2.1434   -1.2375    0.0000 C   0  0  0  0  0  0  0  0  0  0  0  0
    1.4289   -1.6500    0.0000 C   0  0  0  0  0  0  0  0  0  0  0  0
    0.7145   -1.2375    0.0000 C   0  0  0  0  0  0  0  0  0  0  0  0
    0.0000   -1.6500    0.0000 S   0  0  0  0  0  0  0  0  0  0  0  0
   -0.7145   -2.0625    0.0000 O   0  0  0  0  0  0  0  0  0  0  0  0
   -0.4125   -0.9355    0.0000 O   0  0  0  0  0  0  0  0  0  0  0  0
    0.4125   -2.3645    0.0000 N   0  0  0  0  0  0  0  0  0  0  0  0
  1  2  1  0  0  0  0
  2  3  4  0  0  0  0
  3  4  4  0  0  0  0
  4  5  1  0  0  0  0
  5  6  1  0  0  0  0
  6  7  1  0  0  0  0
  7  8  1  0  0  0  0
  8  9  2  0  0  0  0
  8 10  2  0  0  0  0
  8 11  1  0  0  0  0
  4 11  4  0  0  0  0
 11 12  4  0  0  0  0
 12 13  4  0  0  0  0
  2 13  4  0  0  0  0
 13 14  1  0  0  0  0
 14 15  2  0  0  0  0
 14 16  2  0  0  0  0
 14 17  1  0  0  0  0
M  END

> <ChembankId>
2898

> <SMILES>
Cc1cc2CCCS(=O)(=O)c2cc1S(=O)(=O)N

> <InChI>
1/C10H13NO4S2/c1-7-5-8-3-2-4-16(12,13)10(8)6-9(7)17(11,14)15/h5-6H,2-4H2,1H3,(H2,11,14,15)

$$$$
3188932
  Marvin  11101114192D          

 42 42  0  0  0  0            999 V2000
   -3.5724    2.8875    0.0000 C   0  0  0  0  0  0  0  0  0  0  0  0
   -2.8579    2.4750    0.0000 C   0  0  0  0  0  0  0  0  0  0  0  0
   -2.1434    2.8875    0.0000 C   0  0  0  0  0  0  0  0  0  0  0  0
   -1.4289    2.4750    0.0000 C   0  0  0  0  0  0  0  0  0  0  0  0
   -0.7145    2.8875    0.0000 N   0  0  0  0  0  0  0  0  0  0  0  0
    0.0000    2.4750    0.0000 C   0  0  0  0  0  0  0  0  0  0  0  0
    0.7145    2.8875    0.0000 C   0  0  0  0  0  0  0  0  0  0  0  0
    1.4289    2.4750    0.0000 C   0  0  0  0  0  0  0  0  0  0  0  0
    1.4289    1.6500    0.0000 C   0  0  0  0  0  0  0  0  0  0  0  0
    0.7145    1.2375    0.0000 C   0  0  0  0  0  0  0  0  0  0  0  0
   -0.0000    1.6500    0.0000 C   0  0  0  0  0  0  0  0  0  0  0  0
    2.1434    1.2375    0.0000 C   0  0  0  0  0  0  0  0  0  0  0  0
    2.1434    0.4125    0.0000 O   0  0  0  0  0  0  0  0  0  0  0  0
    2.8579    1.6500    0.0000 O   0  0  0  0  0  0  0  0  0  0  0  0
    3.5724    1.2375    0.0000 C   0  0  0  0  0  0  0  0  0  0  0  0
    4.2868    1.6500    0.0000 C   0  0  0  0  0  0  0  0  0  0  0  0
    5.0013    1.2375    0.0000 O   0  0  0  0  0  0  0  0  0  0  0  0
    5.7158    1.6500    0.0000 C   0  0  0  0  0  0  0  0  0  0  0  0
    6.4302    1.2375    0.0000 C   0  0  0  0  0  0  0  0  0  0  0  0
    7.1447    1.6500    0.0000 O   0  0  0  0  0  0  0  0  0  0  0  0
    7.8592    1.2375    0.0000 C   0  0  0  0  0  0  0  0  0  0  0  0
    8.5737    1.6500    0.0000 C   0  0  0  0  0  0  0  0  0  0  0  0
    9.2881    1.2375    0.0000 O   0  0  0  0  0  0  0  0  0  0  0  0
   10.0026    1.6500    0.0000 C   0  0  0  0  0  0  0  0  0  0  0  0
   10.7171    1.2375    0.0000 C   0  0  0  0  0  0  0  0  0  0  0  0
   11.4315    1.6500    0.0000 O   0  0  0  0  0  0  0  0  0  0  0  0
   12.1460    1.2375    0.0000 C   0  0  0  0  0  0  0  0  0  0  0  0
   12.8605    1.6500    0.0000 C   0  0  0  0  0  0  0  0  0  0  0  0
   13.5749    1.2375    0.0000 O   0  0  0  0  0  0  0  0  0  0  0  0
   14.2894    1.6500    0.0000 C   0  0  0  0  0  0  0  0  0  0  0  0
   15.0039    1.2375    0.0000 C   0  0  0  0  0  0  0  0  0  0  0  0
   15.7184    1.6500    0.0000 O   0  0  0  0  0  0  0  0  0  0  0  0
   16.4328    1.2375    0.0000 C   0  0  0  0  0  0  0  0  0  0  0  0
   17.1473    1.6500    0.0000 C   0  0  0  0  0  0  0  0  0  0  0  0
   17.8618    1.2375    0.0000 O   0  0  0  0  0  0  0  0  0  0  0  0
   18.5762    1.6500    0.0000 C   0  0  0  0  0  0  0  0  0  0  0  0
   19.2907    1.2375    0.0000 C   0  0  0  0  0  0  0  0  0  0  0  0
   20.0052    1.6500    0.0000 O   0  0  0  0  0  0  0  0  0  0  0  0
   20.7197    1.2375    0.0000 C   0  0  0  0  0  0  0  0  0  0  0  0
   21.4341    1.6500    0.0000 C   0  0  0  0  0  0  0  0  0  0  0  0
   22.1486    1.2375    0.0000 O   0  0  0  0  0  0  0  0  0  0  0  0
   22.8631    1.6500    0.0000 C   0  0  0  0  0  0  0  0  0  0  0  0
  1  2  1  0  0  0  0
  2  3  1  0  0  0  0
  3  4  1  0  0  0  0
  4  5  1  0  0  0  0
  5  6  1  0  0  0  0
  6  7  4  0  0  0  0
  7  8  4  0  0  0  0
  8  9  4  0  0  0  0
  9 10  4  0  0  0  0
 10 11  4  0  0  0  0
  6 11  4  0  0  0  0
  9 12  1  0  0  0  0
 12 13  2  0  0  0  0
 12 14  1  0  0  0  0
 14 15  1  0  0  0  0
 15 16  1  0  0  0  0
 16 17  1  0  0  0  0
 17 18  1  0  0  0  0
 18 19  1  0  0  0  0
 19 20  1  0  0  0  0
 20 21  1  0  0  0  0
 21 22  1  0  0  0  0
 22 23  1  0  0  0  0
 23 24  1  0  0  0  0
 24 25  1  0  0  0  0
 25 26  1  0  0  0  0
 26 27  1  0  0  0  0
 27 28  1  0  0  0  0
 28 29  1  0  0  0  0
 29 30  1  0  0  0  0
 30 31  1  0  0  0  0
 31 32  1  0  0  0  0
 32 33  1  0  0  0  0
 33 34  1  0  0  0  0
 34 35  1  0  0  0  0
 35 36  1  0  0  0  0
 36 37  1  0  0  0  0
 37 38  1  0  0  0  0
 38 39  1  0  0  0  0
 39 40  1  0  0  0  0
 40 41  1  0  0  0  0
 41 42  1  0  0  0  0
M  END

> <ChembankId>
3188932

> <SMILES>
CCCCNc1ccc(cc1)C(=O)OCCOCCOCCOCCOCCOCCOCCOCCOCCOC

> <InChI>
1/C30H53NO11/c1-3-4-9-31-29-7-5-28(6-8-29)30(32)42-27-26-41-25-24-40-23-22-39-21-20-38-19-18-37-17-16-36-15-14-35-13-12-34-11-10-33-2/h5-8,31H,3-4,9-27H2,1-2H3

$$$$
3060
  Marvin  11101114192D          

 14 13  0  0  1  0            999 V2000
    4.1250    1.4289    0.0000 C   0  0  0  0  0  0  0  0  0  0  0  0
    3.7125    2.1434    0.0000 C   0  0  0  0  0  0  0  0  0  0  0  0
    3.3000    2.8579    0.0000 C   0  0  0  0  0  0  0  0  0  0  0  0
    2.9980    1.7309    0.0000 C   0  0  0  0  0  0  0  0  0  0  0  0
    2.2836    2.1434    0.0000 O   0  0  0  0  0  0  0  0  0  0  0  0
    4.4270    2.5559    0.0000 C   0  0  1  0  0  0  0  0  0  0  0  0
    4.4270    3.3809    0.0000 O   0  0  0  0  0  0  0  0  0  0  0  0
    5.1414    2.1434    0.0000 C   0  0  0  0  0  0  0  0  0  0  0  0
    5.1414    1.3184    0.0000 O   0  0  0  0  0  0  0  0  0  0  0  0
    5.8559    2.5559    0.0000 N   0  0  0  0  0  0  0  0  0  0  0  0
    6.5704    2.1434    0.0000 C   0  0  0  0  0  0  0  0  0  0  0  0
    7.2849    2.5559    0.0000 C   0  0  0  0  0  0  0  0  0  0  0  0
    7.9993    2.1434    0.0000 C   0  0  0  0  0  0  0  0  0  0  0  0
    8.7138    2.5559    0.0000 O   0  0  0  0  0  0  0  0  0  0  0  0
  1  2  1  0  0  0  0
  2  3  1  0  0  0  0
  2  4  1  0  0  0  0
  4  5  1  0  0  0  0
  2  6  1  0  0  0  0
  6  7  1  1  0  0  0
  6  8  1  0  0  0  0
  8  9  2  0  0  0  0
  8 10  1  0  0  0  0
 10 11  1  0  0  0  0
 11 12  1  0  0  0  0
 12 13  1  0  0  0  0
 13 14  1  0  0  0  0
M  END

> <ChembankId>
3060

> <SMILES>
CC(C)(CO)[C@@H](O)C(=O)NCCCO

> <InChI>
1/C9H19NO4/c1-9(2,6-12)7(13)8(14)10-4-3-5-11/h7,11-13H,3-6H2,1-2H3,(H,10,14)

$$$$
1079457
  Marvin  11101114192D          

 15 16  0  0  0  0            999 V2000
    0.7145   -0.4125    0.0000 C   0  0  0  0  0  0  0  0  0  0  0  0
    0.7145   -1.2375    0.0000 C   0  0  0  0  0  0  0  0  0  0  0  0
    1.3819   -1.7224    0.0000 C   0  0  0  0  0  0  0  0  0  0  0  0
    2.1665   -1.4675    0.0000 O   0  0  0  0  0  0  0  0  0  0  0  0
    1.1270   -2.5070    0.0000 C   0  0  0  0  0  0  0  0  0  0  0  0
    1.6119   -3.1745    0.0000 O   0  0  0  0  0  0  0  0  0  0  0  0
    0.3020   -2.5070    0.0000 N   0  0  0  0  0  0  0  0  0  0  0  0
   -0.1830   -3.1745    0.0000 C   0  0  0  0  0  0  0  0  0  0  0  0
    0.1526   -3.9282    0.0000 C   0  0  0  0  0  0  0  0  0  0  0  0
   -0.3323   -4.5956    0.0000 C   0  0  0  0  0  0  0  0  0  0  0  0
   -1.1528   -4.5094    0.0000 C   0  0  0  0  0  0  0  0  0  0  0  0
   -1.4884   -3.7557    0.0000 C   0  0  0  0  0  0  0  0  0  0  0  0
   -1.0034   -3.0882    0.0000 C   0  0  0  0  0  0  0  0  0  0  0  0
    0.0470   -1.7224    0.0000 N   0  0  0  0  0  0  0  0  0  0  0  0
   -0.7376   -1.4675    0.0000 C   0  0  0  0  0  0  0  0  0  0  0  0
  1  2  1  0  0  0  0
  2  3  4  0  0  0  0
  3  4  1  0  0  0  0
  3  5  4  0  0  0  0
  5  6  2  0  0  0  0
  5  7  4  0  0  0  0
  7  8  1  0  0  0  0
  8  9  4  0  0  0  0
  9 10  4  0  0  0  0
 10 11  4  0  0  0  0
 11 12  4  0  0  0  0
 12 13  4  0  0  0  0
  8 13  4  0  0  0  0
  7 14  4  0  0  0  0
  2 14  4  0  0  0  0
 14 15  1  0  0  0  0
M  END

> <ChembankId>
1079457

> <SMILES>
Cc1c(O)c(=O)n(c2ccccc2)n1C

> <InChI>
1/C11H12N2O2/c1-8-10(14)11(15)13(12(8)2)9-6-4-3-5-7-9/h3-7,14H,1-2H3

$$$$
2702
  Marvin  11101114192D          

 17 18  0  0  0  0            999 V2000
    1.4289   -0.0000    0.0000 C   0  0  0  0  0  0  0  0  0  0  0  0
    0.7145   -0.4125    0.0000 O   0  0  0  0  0  0  0  0  0  0  0  0
    0.7145   -1.2375    0.0000 C   0  0  0  0  0  0  0  0  0  0  0  0
    1.3819   -1.7224    0.0000 C   0  0  0  0  0  0  0  0  0  0  0  0
    1.1270   -2.5070    0.0000 C   0  0  0  0  0  0  0  0  0  0  0  0
    1.6119   -3.1745    0.0000 C   0  0  0  0  0  0  0  0  0  0  0  0
    0.3020   -2.5070    0.0000 N   0  0  0  0  0  0  0  0  0  0  0  0
    0.0470   -1.7224    0.0000 N   0  0  0  0  0  0  0  0  0  0  0  0
   -0.7376   -1.4675    0.0000 C   0  0  0  0  0  0  0  0  0  0  0  0
   -1.3507   -2.0195    0.0000 N   0  0  0  0  0  0  0  0  0  0  0  0
   -2.1353   -1.7646    0.0000 C   0  0  0  0  0  0  0  0  0  0  0  0
   -2.7484   -2.3166    0.0000 C   0  0  0  0  0  0  0  0  0  0  0  0
   -2.3068   -0.9576    0.0000 C   0  0  0  0  0  0  0  0  0  0  0  0
   -1.6937   -0.4056    0.0000 C   0  0  0  0  0  0  0  0  0  0  0  0
   -1.8653    0.4014    0.0000 O   0  0  0  0  0  0  0  0  0  0  0  0
   -2.6499    0.6563    0.0000 C   0  0  0  0  0  0  0  0  0  0  0  0
   -0.9091   -0.6605    0.0000 N   0  0  0  0  0  0  0  0  0  0  0  0
  1  2  1  0  0  0  0
  2  3  1  0  0  0  0
  3  4  4  0  0  0  0
  4  5  4  0  0  0  0
  5  6  1  0  0  0  0
  5  7  4  0  0  0  0
  7  8  4  0  0  0  0
  3  8  4  0  0  0  0
  8  9  1  0  0  0  0
  9 10  4  0  0  0  0
 10 11  4  0  0  0  0
 11 12  1  0  0  0  0
 11 13  4  0  0  0  0
 13 14  4  0  0  0  0
 14 15  1  0  0  0  0
 15 16  1  0  0  0  0
 14 17  4  0  0  0  0
  9 17  4  0  0  0  0
M  END

> <ChembankId>
2702

> <SMILES>
COc1cc(C)nn1c2nc(C)cc(OC)n2

> <InChI>
1/C11H14N4O2/c1-7-5-9(16-3)13-11(12-7)15-10(17-4)6-8(2)14-15/h5-6H,1-4H3

$$$$
3068964
  Marvin  11101114192D          

  8  8  0  0  0  0            999 V2000
   -0.1467    3.1768    0.0000 N   0  0  0  0  0  0  0  0  0  0  0  0
   -0.1467    2.3518    0.0000 C   0  0  0  0  0  0  0  0  0  0  0  0
    0.5678    1.9393    0.0000 C   0  0  0  0  0  0  0  0  0  0  0  0
    0.5678    1.1143    0.0000 C   0  0  0  0  0  0  0  0  0  0  0  0
    1.2352    0.6294    0.0000 C   0  0  0  0  0  0  0  0  0  0  0  0
    0.9803   -0.1553    0.0000 C   0  0  0  0  0  0  0  0  0  0  0  0
    0.1553   -0.1553    0.0000 N   0  0  0  0  0  0  0  0  0  0  0  0
   -0.0997    0.6294    0.0000 N   0  0  0  0  0  0  0  0  0  0  0  0
  1  2  1  0  0  0  0
  2  3  1  0  0  0  0
  3  4  1  0  0  0  0
  4  5  4  0  0  0  0
  5  6  4  0  0  0  0
  6  7  4  0  0  0  0
  7  8  4  0  0  0  0
  4  8  4  0  0  0  0
M  STY  1   1 DAT
M  SAL   1  1   7
M  SDT   1 MRV_IMPLICIT_H                                        
M  SDD   1     0.0000    0.0000    DR    ALL  0       0  
M  SED   1 IMPL_H1
M  END

> <ChembankId>
3068964

> <SMILES>
NCCc1cc[nH]n1

> <InChI>
1/C5H9N3/c6-3-1-5-2-4-7-8-5/h2,4H,1,3,6H2,(H,7,8)

$$$$
1821
  Marvin  11101114192D          

 17 19  0  0  0  0            999 V2000
    2.6378    3.1729    0.0000 Cl  0  0  0  0  0  0  0  0  0  0  0  0
    3.3523    3.5854    0.0000 C   0  0  0  0  0  0  0  0  0  0  0  0
    3.3523    4.4104    0.0000 C   0  0  0  0  0  0  0  0  0  0  0  0
    4.0668    4.8229    0.0000 C   0  0  0  0  0  0  0  0  0  0  0  0
    4.7812    4.4104    0.0000 C   0  0  0  0  0  0  0  0  0  0  0  0
    4.7812    3.5854    0.0000 C   0  0  0  0  0  0  0  0  0  0  0  0
    4.0668    3.1729    0.0000 C   0  0  0  0  0  0  0  0  0  0  0  0
    4.0668    2.3479    0.0000 C   0  0  0  0  0  0  0  0  0  0  0  0
    3.3523    1.9354    0.0000 N   0  0  0  0  0  0  0  0  0  0  0  0
    3.3523    1.1104    0.0000 C   0  0  0  0  0  0  0  0  0  0  0  0
    2.6378    0.6979    0.0000 C   0  0  0  0  0  0  0  0  0  0  0  0
    1.9233    1.1104    0.0000 C   0  0  0  0  0  0  0  0  0  0  0  0
    1.1387    0.8555    0.0000 S   0  0  0  0  0  0  0  0  0  0  0  0
    0.6538    1.5229    0.0000 C   0  0  0  0  0  0  0  0  0  0  0  0
    1.1387    2.1904    0.0000 C   0  0  0  0  0  0  0  0  0  0  0  0
    1.9233    1.9354    0.0000 C   0  0  0  0  0  0  0  0  0  0  0  0
    2.6378    2.3479    0.0000 C   0  0  0  0  0  0  0  0  0  0  0  0
  1  2  1  0  0  0  0
  2  3  4  0  0  0  0
  3  4  4  0  0  0  0
  4  5  4  0  0  0  0
  5  6  4  0  0  0  0
  6  7  4  0  0  0  0
  2  7  4  0  0  0  0
  7  8  1  0  0  0  0
  8  9  1  0  0  0  0
  9 10  1  0  0  0  0
 10 11  1  0  0  0  0
 11 12  1  0  0  0  0
 12 13  4  0  0  0  0
 13 14  4  0  0  0  0
 14 15  4  0  0  0  0
 15 16  4  0  0  0  0
 12 16  4  0  0  0  0
 16 17  1  0  0  0  0
  9 17  1  0  0  0  0
M  END

> <ChembankId>
1821

> <SMILES>
Clc1ccccc1CN2CCc3sccc3C2

> <InChI>
1/C14H14ClNS/c15-13-4-2-1-3-11(13)9-16-7-5-14-12(10-16)6-8-17-14/h1-4,6,8H,5,7,9-10H2

$$$$
3188937
  Marvin  11101114192D          

 17 17  0  0  0  0            999 V2000
   -0.7145   -4.3164    0.0000 C   0  0  0  0  0  0  0  0  0  0  0  0
   -1.1270   -3.6020    0.0000 C   0  0  0  0  0  0  0  0  0  0  0  0
   -0.7145   -2.8875    0.0000 C   0  0  0  0  0  0  0  0  0  0  0  0
   -0.3020   -2.1730    0.0000 C   0  0  0  0  0  0  0  0  0  0  0  0
   -1.4289   -2.4750    0.0000 C   0  0  0  0  0  0  0  0  0  0  0  0
   -2.1434   -2.8875    0.0000 N   0  0  0  0  0  0  0  0  0  0  0  0
   -2.8579   -2.4750    0.0000 C   0  0  0  0  0  0  0  0  0  0  0  0
   -2.1434   -3.7125    0.0000 C   0  0  0  0  0  0  0  0  0  0  0  0
    0.0000   -3.3000    0.0000 O   0  0  0  0  0  0  0  0  0  0  0  0
    0.7145   -2.8875    0.0000 C   0  0  0  0  0  0  0  0  0  0  0  0
    0.7145   -2.0625    0.0000 O   0  0  0  0  0  0  0  0  0  0  0  0
    1.4289   -3.3000    0.0000 C   0  0  0  0  0  0  0  0  0  0  0  0
    2.1434   -2.8875    0.0000 C   0  0  0  0  0  0  0  0  0  0  0  0
    2.8579   -3.3000    0.0000 C   0  0  0  0  0  0  0  0  0  0  0  0
    2.8579   -4.1250    0.0000 C   0  0  0  0  0  0  0  0  0  0  0  0
    2.1434   -4.5375    0.0000 C   0  0  0  0  0  0  0  0  0  0  0  0
    1.4289   -4.1250    0.0000 C   0  0  0  0  0  0  0  0  0  0  0  0
  1  2  1  0  0  0  0
  2  3  1  0  0  0  0
  3  4  1  0  0  0  0
  3  5  1  0  0  0  0
  5  6  1  0  0  0  0
  6  7  1  0  0  0  0
  6  8  1  0  0  0  0
  3  9  1  0  0  0  0
  9 10  1  0  0  0  0
 10 11  2  0  0  0  0
 10 12  1  0  0  0  0
 12 13  4  0  0  0  0
 13 14  4  0  0  0  0
 14 15  4  0  0  0  0
 15 16  4  0  0  0  0
 16 17  4  0  0  0  0
 12 17  4  0  0  0  0
M  END

> <ChembankId>
3188937

> <SMILES>
CCC(C)(CN(C)C)OC(=O)c1ccccc1

> <InChI>
1/C14H21NO2/c1-5-14(2,11-15(3)4)17-13(16)12-9-7-6-8-10-12/h6-10H,5,11H2,1-4H3

$$$$
1010605
  Marvin  11101114192D          

 12 11  0  0  0  0            999 V2000
   -0.1914   -0.7145    0.0000 C   0  0  0  0  0  0  0  0  0  0  0  0
    0.5230   -0.3020    0.0000 O   0  0  0  0  0  0  0  0  0  0  0  0
    1.2375   -0.7145    0.0000 P   0  0  0  0  0  0  0  0  0  0  0  0
    0.8250   -1.4289    0.0000 O   0  0  0  0  0  0  0  0  0  0  0  0
    1.6500    0.0000    0.0000 O   0  0  0  0  0  0  0  0  0  0  0  0
    1.2375    0.7145    0.0000 C   0  0  0  0  0  0  0  0  0  0  0  0
    1.9520   -1.1270    0.0000 C   0  0  0  0  0  0  0  0  0  0  0  0
    1.9520   -1.9520    0.0000 O   0  0  0  0  0  0  0  0  0  0  0  0
    2.6664   -0.7145    0.0000 C   0  0  0  0  0  0  0  0  0  0  0  0
    3.3809   -0.3020    0.0000 Cl  0  0  0  0  0  0  0  0  0  0  0  0
    2.2539    0.0000    0.0000 Cl  0  0  0  0  0  0  0  0  0  0  0  0
    3.0789   -1.4289    0.0000 Cl  0  0  0  0  0  0  0  0  0  0  0  0
  1  2  1  0  0  0  0
  2  3  1  0  0  0  0
  3  4  2  0  0  0  0
  3  5  1  0  0  0  0
  5  6  1  0  0  0  0
  3  7  1  0  0  0  0
  7  8  1  0  0  0  0
  7  9  1  0  0  0  0
  9 10  1  0  0  0  0
  9 11  1  0  0  0  0
  9 12  1  0  0  0  0
M  END

> <ChembankId>
1010605

> <SMILES>
COP(=O)(OC)C(O)C(Cl)(Cl)Cl

> <InChI>
1/C4H8Cl3O4P/c1-10-12(9,11-2)3(8)4(5,6)7/h3,8H,1-2H3

$$$$
3127
  Marvin  11101114192D          

 22 22  0  0  0  0            999 V2000
   -3.9336    6.0474    0.0000 C   0  0  0  0  0  0  0  0  0  0  0  0
   -3.5211    5.3329    0.0000 C   0  0  0  0  0  0  0  0  0  0  0  0
   -2.6961    5.3329    0.0000 C   0  0  0  0  0  0  0  0  0  0  0  0
   -2.2836    4.6184    0.0000 C   0  0  0  0  0  0  0  0  0  0  0  0
   -1.4586    4.6184    0.0000 O   0  0  0  0  0  0  0  0  0  0  0  0
   -1.0461    3.9039    0.0000 C   0  0  0  0  0  0  0  0  0  0  0  0
   -0.2211    3.9039    0.0000 C   0  0  0  0  0  0  0  0  0  0  0  0
    0.1914    3.1895    0.0000 C   0  0  0  0  0  0  0  0  0  0  0  0
   -0.2211    2.4750    0.0000 C   0  0  0  0  0  0  0  0  0  0  0  0
   -1.0461    2.4750    0.0000 C   0  0  0  0  0  0  0  0  0  0  0  0
   -1.4586    3.1895    0.0000 C   0  0  0  0  0  0  0  0  0  0  0  0
   -2.2836    3.1895    0.0000 N   0  0  0  0  0  0  0  0  0  0  0  0
    1.0164    3.1895    0.0000 C   0  0  0  0  0  0  0  0  0  0  0  0
    1.4289    3.9039    0.0000 O   0  0  0  0  0  0  0  0  0  0  0  0
    1.4289    2.4750    0.0000 O   0  0  0  0  0  0  0  0  0  0  0  0
    2.2539    2.4750    0.0000 C   0  0  0  0  0  0  0  0  0  0  0  0
    2.6664    1.7605    0.0000 C   0  0  0  0  0  0  0  0  0  0  0  0
    3.4914    1.7605    0.0000 N   0  0  0  0  0  0  0  0  0  0  0  0
    3.9039    1.0461    0.0000 C   0  0  0  0  0  0  0  0  0  0  0  0
    4.7289    1.0461    0.0000 C   0  0  0  0  0  0  0  0  0  0  0  0
    3.9039    2.4750    0.0000 C   0  0  0  0  0  0  0  0  0  0  0  0
    4.7289    2.4750    0.0000 C   0  0  0  0  0  0  0  0  0  0  0  0
  1  2  1  0  0  0  0
  2  3  1  0  0  0  0
  3  4  1  0  0  0  0
  4  5  1  0  0  0  0
  5  6  1  0  0  0  0
  6  7  4  0  0  0  0
  7  8  4  0  0  0  0
  8  9  4  0  0  0  0
  9 10  4  0  0  0  0
 10 11  4  0  0  0  0
  6 11  4  0  0  0  0
 11 12  1  0  0  0  0
  8 13  1  0  0  0  0
 13 14  2  0  0  0  0
 13 15  1  0  0  0  0
 15 16  1  0  0  0  0
 16 17  1  0  0  0  0
 17 18  1  0  0  0  0
 18 19  1  0  0  0  0
 19 20  1  0  0  0  0
 18 21  1  0  0  0  0
 21 22  1  0  0  0  0
M  END

> <ChembankId>
3127

> <SMILES>
CCCCOc1cc(ccc1N)C(=O)OCCN(CC)CC

> <InChI>
1/C17H28N2O3/c1-4-7-11-21-16-13-14(8-9-15(16)18)17(20)22-12-10-19(5-2)6-3/h8-9,13H,4-7,10-12,18H2,1-3H3

$$$$
1001312
  Marvin  11101114192D          

 21 23  0  0  0  0            999 V2000
   -0.1842   -0.6055    0.0000 C   0  0  0  0  0  0  0  0  0  0  0  0
   -0.7145   -1.2375    0.0000 N   0  3  0  0  0  0  0  0  0  0  0  0
   -1.2448   -0.6055    0.0000 C   0  0  0  0  0  0  0  0  0  0  0  0
    0.0000   -1.6500    0.0000 C   0  0  0  0  0  0  0  0  0  0  0  0
    0.0000   -2.4750    0.0000 C   0  0  0  0  0  0  0  0  0  0  0  0
   -0.7145   -2.8875    0.0000 C   0  0  0  0  0  0  0  0  0  0  0  0
   -0.7145   -3.7125    0.0000 C   0  0  0  0  0  0  0  0  0  0  0  0
   -1.4289   -4.1250    0.0000 C   0  0  0  0  0  0  0  0  0  0  0  0
   -1.4289   -4.9500    0.0000 C   0  0  0  0  0  0  0  0  0  0  0  0
   -2.1434   -5.3625    0.0000 C   0  0  0  0  0  0  0  0  0  0  0  0
   -2.8579   -4.9500    0.0000 C   0  0  0  0  0  0  0  0  0  0  0  0
   -2.8579   -4.1250    0.0000 C   0  0  0  0  0  0  0  0  0  0  0  0
   -2.1434   -3.7125    0.0000 C   0  0  0  0  0  0  0  0  0  0  0  0
   -0.0000   -4.1250    0.0000 C   0  0  0  0  0  0  0  0  0  0  0  0
    0.7145   -3.7125    0.0000 C   0  0  0  0  0  0  0  0  0  0  0  0
    1.4289   -4.1250    0.0000 C   0  0  0  0  0  0  0  0  0  0  0  0
    1.4289   -4.9500    0.0000 C   0  0  0  0  0  0  0  0  0  0  0  0
    0.7145   -5.3625    0.0000 C   0  0  0  0  0  0  0  0  0  0  0  0
   -0.0000   -4.9500    0.0000 C   0  0  0  0  0  0  0  0  0  0  0  0
   -1.4289   -2.4750    0.0000 C   0  0  0  0  0  0  0  0  0  0  0  0
   -1.4289   -1.6500    0.0000 C   0  0  0  0  0  0  0  0  0  0  0  0
  1  2  1  0  0  0  0
  2  3  1  0  0  0  0
  2  4  1  0  0  0  0
  4  5  1  0  0  0  0
  5  6  1  0  0  0  0
  6  7  2  0  0  0  0
  7  8  1  0  0  0  0
  8  9  4  0  0  0  0
  9 10  4  0  0  0  0
 10 11  4  0  0  0  0
 11 12  4  0  0  0  0
 12 13  4  0  0  0  0
  8 13  4  0  0  0  0
  7 14  1  0  0  0  0
 14 15  4  0  0  0  0
 15 16  4  0  0  0  0
 16 17  4  0  0  0  0
 17 18  4  0  0  0  0
 18 19  4  0  0  0  0
 14 19  4  0  0  0  0
  6 20  1  0  0  0  0
 20 21  1  0  0  0  0
  2 21  1  0  0  0  0
M  CHG  1   2   1
M  END

> <ChembankId>
1001312

> <SMILES>
C[N+]1(C)CCC(=C(c2ccccc2)c3ccccc3)CC1

> <InChI>
1/C20H24N/c1-21(2)15-13-19(14-16-21)20(17-9-5-3-6-10-17)18-11-7-4-8-12-18/h3-12H,13-16H2,1-2H3/q+1

$$$$
1029858
  Marvin  11101114192D          

 12 12  0  0  0  0            999 V2000
   -0.7145    3.7125    0.0000 N   0  0  0  0  0  0  0  0  0  0  0  0
   -0.0000    3.3000    0.0000 C   0  0  0  0  0  0  0  0  0  0  0  0
    0.7145    3.7125    0.0000 N   0  0  0  0  0  0  0  0  0  0  0  0
   -0.0000    2.4750    0.0000 N   0  0  0  0  0  0  0  0  0  0  0  0
    0.7145    2.0625    0.0000 C   0  0  0  0  0  0  0  0  0  0  0  0
    1.4289    2.4750    0.0000 N   0  0  0  0  0  0  0  0  0  0  0  0
    0.7145    1.2375    0.0000 N   0  0  0  0  0  0  0  0  0  0  0  0
    1.4289    0.8250    0.0000 C   0  0  0  0  0  0  0  0  0  0  0  0
    1.4289    0.0000    0.0000 C   0  0  0  0  0  0  0  0  0  0  0  0
    0.7145   -0.4125    0.0000 O   0  0  0  0  0  0  0  0  0  0  0  0
    0.0000   -0.0000    0.0000 C   0  0  0  0  0  0  0  0  0  0  0  0
   -0.0000    0.8250    0.0000 C   0  0  0  0  0  0  0  0  0  0  0  0
  1  2  1  0  0  0  0
  2  3  2  0  0  0  0
  2  4  1  0  0  0  0
  4  5  1  0  0  0  0
  5  6  2  0  0  0  0
  5  7  1  0  0  0  0
  7  8  1  0  0  0  0
  8  9  1  0  0  0  0
  9 10  1  0  0  0  0
 10 11  1  0  0  0  0
 11 12  1  0  0  0  0
  7 12  1  0  0  0  0
M  END

> <ChembankId>
1029858

> <SMILES>
NC(=N)NC(=N)N1CCOCC1

> <InChI>
1/C6H13N5O/c7-5(8)10-6(9)11-1-3-12-4-2-11/h1-4H2,(H5,7,8,9,10)

$$$$
1090166
  Marvin  11101114192D          

 17 18  0  0  0  0            999 V2000
    1.4289   -0.0000    0.0000 C   0  0  0  0  0  0  0  0  0  0  0  0
    0.7145   -0.4125    0.0000 N   0  0  0  0  0  0  0  0  0  0  0  0
    0.0000    0.0000    0.0000 C   0  0  0  0  0  0  0  0  0  0  0  0
    0.7145   -1.2375    0.0000 C   0  0  0  0  0  0  0  0  0  0  0  0
    1.3819   -1.7224    0.0000 C   0  0  0  0  0  0  0  0  0  0  0  0
    2.1665   -1.4675    0.0000 C   0  0  0  0  0  0  0  0  0  0  0  0
    1.1270   -2.5070    0.0000 N   0  0  0  0  0  0  0  0  0  0  0  0
    1.6119   -3.1745    0.0000 C   0  0  0  0  0  0  0  0  0  0  0  0
    0.3020   -2.5070    0.0000 N   0  0  0  0  0  0  0  0  0  0  0  0
   -0.1830   -3.1745    0.0000 C   0  0  0  0  0  0  0  0  0  0  0  0
    0.1526   -3.9282    0.0000 C   0  0  0  0  0  0  0  0  0  0  0  0
   -0.3323   -4.5956    0.0000 C   0  0  0  0  0  0  0  0  0  0  0  0
   -1.1528   -4.5094    0.0000 C   0  0  0  0  0  0  0  0  0  0  0  0
   -1.4884   -3.7557    0.0000 C   0  0  0  0  0  0  0  0  0  0  0  0
   -1.0034   -3.0882    0.0000 C   0  0  0  0  0  0  0  0  0  0  0  0
    0.0470   -1.7224    0.0000 C   0  0  0  0  0  0  0  0  0  0  0  0
   -0.7376   -1.4675    0.0000 O   0  0  0  0  0  0  0  0  0  0  0  0
  1  2  1  0  0  0  0
  2  3  1  0  0  0  0
  2  4  1  0  0  0  0
  4  5  4  0  0  0  0
  5  6  1  0  0  0  0
  5  7  4  0  0  0  0
  7  8  1  0  0  0  0
  7  9  4  0  0  0  0
  9 10  1  0  0  0  0
 10 11  4  0  0  0  0
 11 12  4  0  0  0  0
 12 13  4  0  0  0  0
 13 14  4  0  0  0  0
 14 15  4  0  0  0  0
 10 15  4  0  0  0  0
  9 16  4  0  0  0  0
  4 16  4  0  0  0  0
 16 17  2  0  0  0  0
M  END

> <ChembankId>
1090166

> <SMILES>
CN(C)c1c(C)n(C)n(c2ccccc2)c1=O

> <InChI>
1/C13H17N3O/c1-10-12(14(2)3)13(17)16(15(10)4)11-8-6-5-7-9-11/h5-9H,1-4H3

$$$$
3069004
  Marvin  11101114192D          

 21 24  0  0  1  0            999 V2000
    3.5330   -3.2587    0.0000 C   0  0  0  0  0  0  0  0  0  0  0  0
    3.8928   -2.5163    0.0000 C   0  0  2  0  0  0  0  0  0  0  0  0
    4.4247   -3.1470    0.0000 C   0  0  0  0  0  0  0  0  0  0  0  0
    5.2368   -3.0018    0.0000 C   0  0  0  0  0  0  0  0  0  0  0  0
    5.5171   -2.2259    0.0000 C   0  0  1  0  0  0  0  0  0  0  0  0
    4.9853   -1.5952    0.0000 C   0  0  1  0  0  0  0  0  0  0  0  0
    5.2655   -0.8192    0.0000 C   0  0  0  0  0  0  0  0  0  0  0  0
    6.0777   -0.6740    0.0000 C   0  0  0  0  0  0  0  0  0  0  0  0
    6.6095   -1.3047    0.0000 C   0  0  0  0  0  0  0  0  0  0  0  0
    7.4216   -1.1595    0.0000 C   0  0  0  0  0  0  0  0  0  0  0  0
    7.9534   -1.7902    0.0000 C   0  0  0  0  0  0  0  0  0  0  0  0
    7.6731   -2.5662    0.0000 C   0  0  0  0  0  0  0  0  0  0  0  0
    6.8610   -2.7114    0.0000 C   0  0  0  0  0  0  0  0  0  0  0  0
    6.3292   -2.0807    0.0000 C   0  0  2  0  0  0  0  0  0  0  0  0
    4.1731   -1.7404    0.0000 C   0  0  2  0  0  0  0  0  0  0  0  0
    3.5218   -1.2340    0.0000 C   0  0  0  0  0  0  0  0  0  0  0  0
    2.8390   -1.6970    0.0000 C   0  0  0  0  0  0  0  0  0  0  0  0
    3.0683   -2.4895    0.0000 C   0  0  2  0  0  0  0  0  0  0  0  0
    2.3074   -2.8084    0.0000 O   0  0  0  0  0  0  0  0  0  0  0  0
    2.9469   -3.3055    0.0000 C   0  0  0  0  0  0  0  0  0  0  0  0
    2.8255   -4.1215    0.0000 C   0  0  0  0  0  0  0  0  0  0  0  0
  2  1  1  1  0  0  0
  2  3  1  0  0  0  0
  3  4  1  0  0  0  0
  5  4  1  1  0  0  0
  5  6  1  0  0  0  0
  6  7  1  6  0  0  0
  7  8  1  0  0  0  0
  8  9  1  0  0  0  0
  9 10  2  0  0  0  0
 10 11  1  0  0  0  0
 11 12  1  0  0  0  0
 12 13  1  0  0  0  0
 13 14  1  0  0  0  0
  5 14  1  0  0  0  0
 14  9  1  6  0  0  0
  6 15  1  0  0  0  0
  2 15  1  0  0  0  0
 15 16  1  1  0  0  0
 16 17  1  0  0  0  0
 17 18  1  0  0  0  0
  2 18  1  0  0  0  0
 18 19  1  1  0  0  0
 18 20  1  6  0  0  0
 20 21  3  0  0  0  0
M  END

> <ChembankId>
3069004

> <SMILES>
C[C@@]12CC[C@H]3[C@@H](CCC4=CCCC[C@H]34)[C@@H]2CC[C@@]1(O)C#C

> <InChI>
1/C20H28O/c1-3-20(21)13-11-18-17-9-8-14-6-4-5-7-15(14)16(17)10-12-19(18,20)2/h1,6,15-18,21H,4-5,7-13H2,2H3

$$$$
899
  Marvin  11101114192D          

 20 23  0  0  1  0            999 V2000
   -0.7145    2.0625    0.0000 C   0  0  0  0  0  0  0  0  0  0  0  0
   -0.7145    1.2375    0.0000 N   0  0  0  0  0  0  0  0  0  0  0  0
   -1.4289    0.8250    0.0000 C   0  0  0  0  0  0  0  0  0  0  0  0
   -1.4289   -0.0000    0.0000 C   0  0  0  0  0  0  0  0  0  0  0  0
   -0.7145   -0.4125    0.0000 C   0  0  0  0  0  0  0  0  0  0  0  0
   -0.7145   -1.2375    0.0000 C   0  0  0  0  0  0  0  0  0  0  0  0
    0.0000   -1.6500    0.0000 C   0  0  0  0  0  0  0  0  0  0  0  0
    0.7145   -1.2375    0.0000 C   0  0  0  0  0  0  0  0  0  0  0  0
    0.7145   -0.4125    0.0000 C   0  0  0  0  0  0  0  0  0  0  0  0
   -0.0000   -0.0000    0.0000 C   0  0  0  0  0  0  0  0  0  0  0  0
    0.0000    0.8250    0.0000 C   0  0  1  0  0  0  0  0  0  0  0  0
    0.7145    1.2375    0.0000 C   0  0  0  0  0  0  0  0  0  0  0  0
    1.4289    0.8250    0.0000 C   0  0  0  0  0  0  0  0  0  0  0  0
    2.1434    1.2375    0.0000 C   0  0  0  0  0  0  0  0  0  0  0  0
    2.8579    0.8250    0.0000 C   0  0  0  0  0  0  0  0  0  0  0  0
    2.8579   -0.0000    0.0000 C   0  0  0  0  0  0  0  0  0  0  0  0
    3.5724   -0.4125    0.0000 O   0  0  0  0  0  0  0  0  0  0  0  0
    2.1434   -0.4125    0.0000 C   0  0  0  0  0  0  0  0  0  0  0  0
    2.1434   -1.2375    0.0000 O   0  0  0  0  0  0  0  0  0  0  0  0
    1.4289   -0.0000    0.0000 C   0  0  0  0  0  0  0  0  0  0  0  0
  1  2  1  0  0  0  0
  2  3  1  0  0  0  0
  3  4  1  0  0  0  0
  4  5  1  0  0  0  0
  5  6  4  0  0  0  0
  6  7  4  0  0  0  0
  7  8  4  0  0  0  0
  8  9  4  0  0  0  0
  9 10  4  0  0  0  0
  5 10  4  0  0  0  0
 10 11  1  0  0  0  0
 11  2  1  6  0  0  0
 11 12  1  0  0  0  0
 12 13  1  0  0  0  0
 13 14  4  0  0  0  0
 14 15  4  0  0  0  0
 15 16  4  0  0  0  0
 16 17  1  0  0  0  0
 16 18  4  0  0  0  0
 18 19  1  0  0  0  0
 18 20  4  0  0  0  0
 13 20  4  0  0  0  0
  9 20  1  0  0  0  0
M  END

> <ChembankId>
899

> <SMILES>
CN1CCc2cccc-3c2[C@H]1Cc4ccc(O)c(O)c43

> <InChI>
1/C17H17NO2/c1-18-8-7-10-3-2-4-12-15(10)13(18)9-11-5-6-14(19)17(20)16(11)12/h2-6,13,19-20H,7-9H2,1H3

$$$$
3069006
  Marvin  11101114192D          

 26 28  0  0  0  0            999 V2000
   -0.7145    2.0625    0.0000 C   0  0  0  0  0  0  0  0  0  0  0  0
   -0.7145    1.2375    0.0000 C   0  0  0  0  0  0  0  0  0  0  0  0
   -1.4289    0.8250    0.0000 O   0  0  0  0  0  0  0  0  0  0  0  0
    0.0000    0.8250    0.0000 C   0  0  0  0  0  0  0  0  0  0  0  0
    0.0000    0.0000    0.0000 C   0  0  0  0  0  0  0  0  0  0  0  0
   -0.7145   -0.4125    0.0000 C   0  0  0  0  0  0  0  0  0  0  0  0
   -0.7145   -1.2375    0.0000 C   0  0  0  0  0  0  0  0  0  0  0  0
   -1.4289   -1.6500    0.0000 C   0  0  0  0  0  0  0  0  0  0  0  0
   -2.1434   -1.2375    0.0000 C   0  0  0  0  0  0  0  0  0  0  0  0
   -2.1434   -0.4125    0.0000 C   0  0  0  0  0  0  0  0  0  0  0  0
   -1.4289    0.0000    0.0000 C   0  0  0  0  0  0  0  0  0  0  0  0
   -2.8579   -1.6500    0.0000 N   0  3  0  0  0  0  0  0  0  0  0  0
   -3.5724   -1.2375    0.0000 O   0  0  0  0  0  0  0  0  0  0  0  0
   -2.8579   -2.4750    0.0000 O   0  5  0  0  0  0  0  0  0  0  0  0
    0.7145   -0.4125    0.0000 C   0  0  0  0  0  0  0  0  0  0  0  0
    1.4289    0.0000    0.0000 C   0  0  0  0  0  0  0  0  0  0  0  0
    1.4289    0.8250    0.0000 O   0  0  0  0  0  0  0  0  0  0  0  0
    2.1434   -0.4125    0.0000 C   0  0  0  0  0  0  0  0  0  0  0  0
    2.8579    0.0000    0.0000 C   0  0  0  0  0  0  0  0  0  0  0  0
    3.5724   -0.4125    0.0000 C   0  0  0  0  0  0  0  0  0  0  0  0
    3.5724   -1.2375    0.0000 C   0  0  0  0  0  0  0  0  0  0  0  0
    2.8579   -1.6500    0.0000 C   0  0  0  0  0  0  0  0  0  0  0  0
    2.1434   -1.2375    0.0000 C   0  0  0  0  0  0  0  0  0  0  0  0
    1.4289   -1.6500    0.0000 O   0  0  0  0  0  0  0  0  0  0  0  0
    0.7145   -1.2375    0.0000 C   0  0  0  0  0  0  0  0  0  0  0  0
    0.0000   -1.6500    0.0000 O   0  0  0  0  0  0  0  0  0  0  0  0
  1  2  1  0  0  0  0
  2  3  2  0  0  0  0
  2  4  1  0  0  0  0
  4  5  1  0  0  0  0
  5  6  1  0  0  0  0
  6  7  4  0  0  0  0
  7  8  4  0  0  0  0
  8  9  4  0  0  0  0
  9 10  4  0  0  0  0
 10 11  4  0  0  0  0
  6 11  4  0  0  0  0
  9 12  1  0  0  0  0
 12 13  2  0  0  0  0
 12 14  1  0  0  0  0
  5 15  1  0  0  0  0
 15 16  4  0  0  0  0
 16 17  1  0  0  0  0
 16 18  4  0  0  0  0
 18 19  4  0  0  0  0
 19 20  4  0  0  0  0
 20 21  4  0  0  0  0
 21 22  4  0  0  0  0
 22 23  4  0  0  0  0
 18 23  4  0  0  0  0
 23 24  4  0  0  0  0
 24 25  4  0  0  0  0
 15 25  4  0  0  0  0
 25 26  2  0  0  0  0
M  CHG  2  12   1  14  -1
M  END

> <ChembankId>
3069006

> <SMILES>
CC(=O)CC(c1ccc(cc1)[N+](=O)[O-])c2c(O)c3ccccc3oc2=O

> <InChI>
1/C19H15NO6/c1-11(21)10-15(12-6-8-13(9-7-12)20(24)25)17-18(22)14-4-2-3-5-16(14)26-19(17)23/h2-9,15,22H,10H2,1H3

$$$$
929
  Marvin  11101114192D          

 24 28  0  0  1  0            999 V2000
    4.4884    3.2171    0.0000 O   0  0  0  0  0  0  0  0  0  0  0  0
    4.1711    2.4556    0.0000 C   0  0  0  0  0  0  0  0  0  0  0  0
    4.6913    1.7996    0.0000 C   0  0  0  0  0  0  0  0  0  0  0  0
    4.3798    1.0340    0.0000 C   0  0  0  0  0  0  0  0  0  0  0  0
    3.5551    0.9477    0.0000 C   0  0  0  0  0  0  0  0  0  0  0  0
    3.2560    0.1990    0.0000 C   0  0  0  0  0  0  0  0  0  0  0  0
    2.4378    0.1885    0.0000 C   0  0  1  0  0  0  0  0  0  0  0  0
    1.8940   -0.3996    0.0000 N   0  0  0  0  0  0  0  0  0  0  0  0
    2.0316   -1.2131    0.0000 C   0  0  0  0  0  0  0  0  0  0  0  0
    1.3960   -1.7390    0.0000 C   0  0  0  0  0  0  0  0  0  0  0  0
    1.5337   -2.5524    0.0000 C   0  0  0  0  0  0  0  0  0  0  0  0
    1.1727   -0.0156    0.0000 C   0  0  0  0  0  0  0  0  0  0  0  0
    1.3154    0.8718    0.0000 C   0  0  0  0  0  0  0  0  0  0  0  0
    2.1603    1.4705    0.0000 C   0  0  1  0  0  0  0  0  0  0  0  0
    1.9455    2.3020    0.0000 C   0  0  1  0  0  0  0  0  0  0  0  0
    2.6110    2.8048    0.0000 O   0  0  0  0  0  0  0  0  0  0  0  0
    3.3227    2.3612    0.0000 C   0  0  0  0  0  0  0  0  0  0  0  0
    3.0321    1.5936    0.0000 C   0  0  0  0  0  0  0  0  0  0  0  0
    1.8472    0.9739    0.0000 C   0  0  2  0  0  0  0  0  0  0  0  0
    1.4245    0.2654    0.0000 O   0  0  0  0  0  0  0  0  0  0  0  0
    0.8735    1.1209    0.0000 C   0  0  0  0  0  0  0  0  0  0  0  0
    0.5608    1.8619    0.0000 C   0  0  0  0  0  0  0  0  0  0  0  0
    1.1197    2.4624    0.0000 C   0  0  0  0  0  0  0  0  0  0  0  0
    0.8643    3.2468    0.0000 O   0  0  0  0  0  0  0  0  0  0  0  0
  1  2  1  0  0  0  0
  2  3  4  0  0  0  0
  3  4  4  0  0  0  0
  4  5  4  0  0  0  0
  5  6  1  0  0  0  0
  6  7  1  0  0  0  0
  7  8  1  1  0  0  0
  8  9  1  0  0  0  0
  9 10  1  0  0  0  0
 10 11  2  0  0  0  0
  8 12  1  0  0  0  0
 12 13  1  0  0  0  0
 13 14  1  0  0  0  0
 14 15  1  0  0  0  0
 15 16  1  6  0  0  0
 16 17  1  0  0  0  0
  2 17  4  0  0  0  0
 17 18  4  0  0  0  0
  5 18  4  0  0  0  0
 14 18  1  1  0  0  0
 14 19  1  0  0  0  0
  7 19  1  0  0  0  0
 19 20  1  1  0  0  0
 19 21  1  0  0  0  0
 21 22  1  0  0  0  0
 22 23  1  0  0  0  0
 15 23  1  0  0  0  0
 23 24  2  0  0  0  0
M  END

> <ChembankId>
929

> <SMILES>
Oc1ccc2C[C@H]3N(CC=C)CC[C@]4([C@H]5Oc1c24)[C@@]3(O)CCC5=O

> <InChI>
1/C19H21NO4/c1-2-8-20-9-7-18-15-11-3-4-12(21)16(15)24-17(18)13(22)5-6-19(18,23)14(20)10-11/h2-4,14,17,21,23H,1,5-10H2

$$$$
1027
  Marvin  11101114192D          

 26 31  0  0  1  0            999 V2000
    0.8638   -2.4218    0.0000 O   0  0  0  0  0  0  0  0  0  0  0  0
    1.1191   -1.6373    0.0000 C   0  0  1  0  0  0  0  0  0  0  0  0
    0.5601   -1.0371    0.0000 C   0  0  0  0  0  0  0  0  0  0  0  0
    0.8730   -0.2960    0.0000 C   0  0  0  0  0  0  0  0  0  0  0  0
    1.8469   -0.1489    0.0000 C   0  0  1  0  0  0  0  0  0  0  0  0
    1.4240    0.5595    0.0000 O   0  0  0  0  0  0  0  0  0  0  0  0
    2.4371    0.6365    0.0000 C   0  0  1  0  0  0  0  0  0  0  0  0
    3.2556    0.6259    0.0000 C   0  0  0  0  0  0  0  0  0  0  0  0
    3.5543   -0.1229    0.0000 C   0  0  0  0  0  0  0  0  0  0  0  0
    4.3790   -0.2088    0.0000 C   0  0  0  0  0  0  0  0  0  0  0  0
    4.6907   -0.9743    0.0000 C   0  0  0  0  0  0  0  0  0  0  0  0
    4.1707   -1.6304    0.0000 C   0  0  0  0  0  0  0  0  0  0  0  0
    4.4882   -2.3919    0.0000 O   0  0  0  0  0  0  0  0  0  0  0  0
    3.3221   -1.5363    0.0000 C   0  0  0  0  0  0  0  0  0  0  0  0
    2.6104   -1.9798    0.0000 O   0  0  0  0  0  0  0  0  0  0  0  0
    1.9449   -1.4771    0.0000 C   0  0  2  0  0  0  0  0  0  0  0  0
    2.1595   -0.6451    0.0000 C   0  0  1  0  0  0  0  0  0  0  0  0
    1.3144   -0.0464    0.0000 C   0  0  0  0  0  0  0  0  0  0  0  0
    1.1721    0.8410    0.0000 C   0  0  0  0  0  0  0  0  0  0  0  0
    1.8935    1.2248    0.0000 N   0  0  0  0  0  0  0  0  0  0  0  0
    2.0313    2.0382    0.0000 C   0  0  0  0  0  0  0  0  0  0  0  0
    2.8047    2.3255    0.0000 C   0  0  0  0  0  0  0  0  0  0  0  0
    3.1484    3.0755    0.0000 C   0  0  0  0  0  0  0  0  0  0  0  0
    3.8984    2.7318    0.0000 C   0  0  0  0  0  0  0  0  0  0  0  0
    3.5547    1.9818    0.0000 C   0  0  0  0  0  0  0  0  0  0  0  0
    3.0315   -0.7687    0.0000 C   0  0  0  0  0  0  0  0  0  0  0  0
  2  1  1  1  0  0  0
  2  3  1  0  0  0  0
  3  4  1  0  0  0  0
  4  5  1  0  0  0  0
  5  6  1  6  0  0  0
  5  7  1  0  0  0  0
  7  8  1  0  0  0  0
  8  9  1  0  0  0  0
  9 10  4  0  0  0  0
 10 11  4  0  0  0  0
 11 12  4  0  0  0  0
 12 13  1  0  0  0  0
 12 14  4  0  0  0  0
 14 15  1  0  0  0  0
 16 15  1  1  0  0  0
  2 16  1  0  0  0  0
 16 17  1  0  0  0  0
  5 17  1  0  0  0  0
 17 18  1  0  0  0  0
 18 19  1  0  0  0  0
 19 20  1  0  0  0  0
  7 20  1  6  0  0  0
 20 21  1  0  0  0  0
 21 22  1  0  0  0  0
 22 23  1  0  0  0  0
 23 24  1  0  0  0  0
 24 25  1  0  0  0  0
 22 25  1  0  0  0  0
 17 26  1  6  0  0  0
 14 26  4  0  0  0  0
  9 26  4  0  0  0  0
M  END

> <ChembankId>
1027

> <SMILES>
O[C@H]1CC[C@@]2(O)[C@H]3Cc4ccc(O)c5O[C@@H]1[C@]2(CCN3CC6CCC6)c54

> <InChI>
1/C21H27NO4/c23-14-5-4-13-10-16-21(25)7-6-15(24)19-20(21,17(13)18(14)26-19)8-9-22(16)11-12-2-1-3-12/h4-5,12,15-16,19,23-25H,1-3,6-11H2

$$$$
3069040
  Marvin  11101114192D          

 14 14  0  0  0  0            999 V2000
    4.2868   -0.0000    0.0000 C   0  0  0  0  0  0  0  0  0  0  0  0
    3.5724   -0.4125    0.0000 N   0  0  0  0  0  0  0  0  0  0  0  0
    2.8579   -0.0000    0.0000 C   0  0  0  0  0  0  0  0  0  0  0  0
    2.1434   -0.4125    0.0000 C   0  0  0  0  0  0  0  0  0  0  0  0
    2.1434   -1.2375    0.0000 O   0  0  0  0  0  0  0  0  0  0  0  0
    1.4289   -0.0000    0.0000 C   0  0  0  0  0  0  0  0  0  0  0  0
    0.7145   -0.4125    0.0000 C   0  0  0  0  0  0  0  0  0  0  0  0
    0.0000   -0.0000    0.0000 C   0  0  0  0  0  0  0  0  0  0  0  0
    0.0000    0.8250    0.0000 C   0  0  0  0  0  0  0  0  0  0  0  0
   -0.7145    1.2375    0.0000 O   0  0  0  0  0  0  0  0  0  0  0  0
    0.7145    1.2375    0.0000 C   0  0  0  0  0  0  0  0  0  0  0  0
    0.7145    2.0625    0.0000 O   0  0  0  0  0  0  0  0  0  0  0  0
    1.4289    2.4750    0.0000 C   0  0  0  0  0  0  0  0  0  0  0  0
    1.4289    0.8250    0.0000 C   0  0  0  0  0  0  0  0  0  0  0  0
  1  2  1  0  0  0  0
  2  3  1  0  0  0  0
  3  4  1  0  0  0  0
  4  5  1  0  0  0  0
  4  6  1  0  0  0  0
  6  7  4  0  0  0  0
  7  8  4  0  0  0  0
  8  9  4  0  0  0  0
  9 10  1  0  0  0  0
  9 11  4  0  0  0  0
 11 12  1  0  0  0  0
 12 13  1  0  0  0  0
 11 14  4  0  0  0  0
  6 14  4  0  0  0  0
M  END

> <ChembankId>
3069040

> <SMILES>
CNCC(O)c1ccc(O)c(OC)c1

> <InChI>
1/C10H15NO3/c1-11-6-9(13)7-3-4-8(12)10(5-7)14-2/h3-5,9,11-13H,6H2,1-2H3

$$$$
3487389
  Marvin  11101114192D          

 25 27  0  0  0  0            999 V2000
   -1.4289   -4.1250    0.0000 Cl  0  0  0  0  0  0  0  0  0  0  0  0
   -0.7145   -3.7125    0.0000 C   0  0  0  0  0  0  0  0  0  0  0  0
   -0.7145   -2.8875    0.0000 C   0  0  0  0  0  0  0  0  0  0  0  0
    0.0000   -2.4750    0.0000 C   0  0  0  0  0  0  0  0  0  0  0  0
    0.7145   -2.8875    0.0000 C   0  0  0  0  0  0  0  0  0  0  0  0
    1.4289   -2.4750    0.0000 C   0  0  0  0  0  0  0  0  0  0  0  0
    1.4289   -1.6500    0.0000 C   0  0  0  0  0  0  0  0  0  0  0  0
    2.1434   -1.2375    0.0000 N   0  0  0  0  0  0  0  0  0  0  0  0
    2.2296   -0.4170    0.0000 C   0  0  0  0  0  0  0  0  0  0  0  0
    3.0366   -0.2455    0.0000 C   0  0  0  0  0  0  0  0  0  0  0  0
    3.4491   -0.9600    0.0000 N   0  0  0  0  0  0  0  0  0  0  0  0
    2.8971   -1.5731    0.0000 C   0  0  0  0  0  0  0  0  0  0  0  0
    2.1434   -2.8875    0.0000 O   0  0  0  0  0  0  0  0  0  0  0  0
    2.8579   -2.4750    0.0000 C   0  0  0  0  0  0  0  0  0  0  0  0
    3.5724   -2.8875    0.0000 C   0  0  0  0  0  0  0  0  0  0  0  0
    4.2868   -2.4750    0.0000 C   0  0  0  0  0  0  0  0  0  0  0  0
    4.2868   -1.6500    0.0000 Cl  0  0  0  0  0  0  0  0  0  0  0  0
    5.0013   -2.8875    0.0000 C   0  0  0  0  0  0  0  0  0  0  0  0
    5.0013   -3.7125    0.0000 C   0  0  0  0  0  0  0  0  0  0  0  0
    4.2868   -4.1250    0.0000 C   0  0  0  0  0  0  0  0  0  0  0  0
    3.5724   -3.7125    0.0000 C   0  0  0  0  0  0  0  0  0  0  0  0
    2.8579   -4.1250    0.0000 Cl  0  0  0  0  0  0  0  0  0  0  0  0
    0.7145   -3.7125    0.0000 C   0  0  0  0  0  0  0  0  0  0  0  0
    1.4289   -4.1250    0.0000 Cl  0  0  0  0  0  0  0  0  0  0  0  0
    0.0000   -4.1250    0.0000 C   0  0  0  0  0  0  0  0  0  0  0  0
  1  2  1  0  0  0  0
  2  3  4  0  0  0  0
  3  4  4  0  0  0  0
  4  5  4  0  0  0  0
  5  6  1  0  0  0  0
  6  7  1  0  0  0  0
  7  8  1  0  0  0  0
  8  9  4  0  0  0  0
  9 10  4  0  0  0  0
 10 11  4  0  0  0  0
 11 12  4  0  0  0  0
  8 12  4  0  0  0  0
  6 13  1  0  0  0  0
 13 14  1  0  0  0  0
 14 15  1  0  0  0  0
 15 16  4  0  0  0  0
 16 17  1  0  0  0  0
 16 18  4  0  0  0  0
 18 19  4  0  0  0  0
 19 20  4  0  0  0  0
 20 21  4  0  0  0  0
 15 21  4  0  0  0  0
 21 22  1  0  0  0  0
  5 23  4  0  0  0  0
 23 24  1  0  0  0  0
 23 25  4  0  0  0  0
  2 25  4  0  0  0  0
M  END

> <ChembankId>
3487389

> <SMILES>
Clc1ccc(C(Cn2ccnc2)OCc3c(Cl)cccc3Cl)c(Cl)c1

> <InChI>
1/C18H14Cl4N2O/c19-12-4-5-13(17(22)8-12)18(9-24-7-6-23-11-24)25-10-14-15(20)2-1-3-16(14)21/h1-8,11,18H,9-10H2

$$$$
2784
  Marvin  11101114192D          

 26 29  0  0  1  0            999 V2000
    3.5330   -3.2587    0.0000 C   0  0  0  0  0  0  0  0  0  0  0  0
    3.8928   -2.5163    0.0000 C   0  0  2  0  0  0  0  0  0  0  0  0
    4.4247   -3.1470    0.0000 C   0  0  0  0  0  0  0  0  0  0  0  0
    5.2368   -3.0018    0.0000 C   0  0  0  0  0  0  0  0  0  0  0  0
    5.5171   -2.2259    0.0000 C   0  0  1  0  0  0  0  0  0  0  0  0
    4.9853   -1.5952    0.0000 C   0  0  1  0  0  0  0  0  0  0  0  0
    5.2655   -0.8192    0.0000 C   0  0  0  0  0  0  0  0  0  0  0  0
    6.0777   -0.6740    0.0000 C   0  0  0  0  0  0  0  0  0  0  0  0
    6.6095   -1.3047    0.0000 C   0  0  0  0  0  0  0  0  0  0  0  0
    7.4216   -1.1595    0.0000 C   0  0  0  0  0  0  0  0  0  0  0  0
    7.9534   -1.7902    0.0000 C   0  0  0  0  0  0  0  0  0  0  0  0
    8.7655   -1.6450    0.0000 O   0  0  0  0  0  0  0  0  0  0  0  0
    7.6731   -2.5662    0.0000 C   0  0  0  0  0  0  0  0  0  0  0  0
    6.8610   -2.7114    0.0000 C   0  0  0  0  0  0  0  0  0  0  0  0
    6.3292   -2.0807    0.0000 C   0  0  2  0  0  0  0  0  0  0  0  0
    6.0489   -2.8566    0.0000 C   0  0  0  0  0  0  0  0  0  0  0  0
    4.1731   -1.7404    0.0000 C   0  0  2  0  0  0  0  0  0  0  0  0
    3.5218   -1.2340    0.0000 C   0  0  0  0  0  0  0  0  0  0  0  0
    2.8390   -1.6970    0.0000 C   0  0  0  0  0  0  0  0  0  0  0  0
    3.0683   -2.4895    0.0000 C   0  0  2  0  0  0  0  0  0  0  0  0
    2.3074   -2.8084    0.0000 O   0  0  0  0  0  0  0  0  0  0  0  0
    2.9469   -3.3055    0.0000 C   0  0  0  0  0  0  0  0  0  0  0  0
    3.5929   -3.8187    0.0000 C   0  0  0  0  0  0  0  0  0  0  0  0
    3.4715   -4.6347    0.0000 C   0  0  0  0  0  0  0  0  0  0  0  0
    4.1174   -5.1478    0.0000 O   0  0  0  0  0  0  0  0  0  0  0  0
    2.7041   -4.9376    0.0000 O   0  0  0  0  0  0  0  0  0  0  0  0
  2  1  1  1  0  0  0
  2  3  1  0  0  0  0
  3  4  1  0  0  0  0
  5  4  1  1  0  0  0
  5  6  1  0  0  0  0
  6  7  1  6  0  0  0
  7  8  2  0  0  0  0
  8  9  1  0  0  0  0
  9 10  2  0  0  0  0
 10 11  1  0  0  0  0
 11 12  2  0  0  0  0
 11 13  1  0  0  0  0
 13 14  1  0  0  0  0
 14 15  1  0  0  0  0
  5 15  1  0  0  0  0
  9 15  1  0  0  0  0
 15 16  1  1  0  0  0
  6 17  1  0  0  0  0
  2 17  1  0  0  0  0
 17 18  1  1  0  0  0
 18 19  1  0  0  0  0
 19 20  1  0  0  0  0
  2 20  1  0  0  0  0
 20 21  1  1  0  0  0
 20 22  1  6  0  0  0
 22 23  1  0  0  0  0
 23 24  1  0  0  0  0
 24 25  2  0  0  0  0
 24 26  1  0  0  0  0
M  END

> <ChembankId>
2784

> <SMILES>
C[C@@]12CC[C@H]3[C@@H](C=CC4=CC(=O)CC[C@]34C)[C@@H]2CC[C@@]1(O)CCC(=O)O

> <InChI>
1/C22H30O4/c1-20-9-5-15(23)13-14(20)3-4-16-17(20)6-10-21(2)18(16)7-11-22(21,26)12-8-19(24)25/h3-4,13,16-18,26H,5-12H2,1-2H3,(H,24,25)

$$$$
3189056
  Marvin  11101114192D          

 30 33  0  0  0  0            999 V2000
   -0.7145   -2.8875    0.0000 C   0  0  0  0  0  0  0  0  0  0  0  0
    0.0000   -3.3000    0.0000 N   0  0  0  0  0  0  0  0  0  0  0  0
    0.0000   -4.1250    0.0000 C   0  0  0  0  0  0  0  0  0  0  0  0
    0.7145   -2.8875    0.0000 S   0  0  0  0  0  0  0  0  0  0  0  0
    1.1270   -3.6020    0.0000 O   0  0  0  0  0  0  0  0  0  0  0  0
    0.3020   -2.1730    0.0000 O   0  0  0  0  0  0  0  0  0  0  0  0
    1.4289   -2.4750    0.0000 C   0  0  0  0  0  0  0  0  0  0  0  0
    1.4289   -1.6500    0.0000 C   0  0  0  0  0  0  0  0  0  0  0  0
    2.1434   -1.2375    0.0000 C   0  0  0  0  0  0  0  0  0  0  0  0
    2.8579   -1.6500    0.0000 C   0  0  0  0  0  0  0  0  0  0  0  0
    3.5724   -1.2375    0.0000 S   0  0  0  0  0  0  0  0  0  0  0  0
    4.2868   -1.6500    0.0000 C   0  0  0  0  0  0  0  0  0  0  0  0
    5.0013   -1.2375    0.0000 C   0  0  0  0  0  0  0  0  0  0  0  0
    5.7158   -1.6500    0.0000 C   0  0  0  0  0  0  0  0  0  0  0  0
    5.7158   -2.4750    0.0000 C   0  0  0  0  0  0  0  0  0  0  0  0
    5.0013   -2.8875    0.0000 C   0  0  0  0  0  0  0  0  0  0  0  0
    4.2868   -2.4750    0.0000 C   0  0  0  0  0  0  0  0  0  0  0  0
    3.5724   -2.8875    0.0000 N   0  0  0  0  0  0  0  0  0  0  0  0
    3.5724   -3.7125    0.0000 C   0  0  0  0  0  0  0  0  0  0  0  0
    2.8579   -4.1250    0.0000 C   0  0  0  0  0  0  0  0  0  0  0  0
    2.8579   -4.9500    0.0000 C   0  0  0  0  0  0  0  0  0  0  0  0
    2.1434   -5.3625    0.0000 N   0  0  0  0  0  0  0  0  0  0  0  0
    2.1434   -6.1875    0.0000 C   0  0  0  0  0  0  0  0  0  0  0  0
    1.4289   -6.6000    0.0000 C   0  0  0  0  0  0  0  0  0  0  0  0
    0.7145   -6.1875    0.0000 N   0  0  0  0  0  0  0  0  0  0  0  0
    0.0000   -6.6000    0.0000 C   0  0  0  0  0  0  0  0  0  0  0  0
    0.7145   -5.3625    0.0000 C   0  0  0  0  0  0  0  0  0  0  0  0
    1.4289   -4.9500    0.0000 C   0  0  0  0  0  0  0  0  0  0  0  0
    2.8579   -2.4750    0.0000 C   0  0  0  0  0  0  0  0  0  0  0  0
    2.1434   -2.8875    0.0000 C   0  0  0  0  0  0  0  0  0  0  0  0
  1  2  1  0  0  0  0
  2  3  1  0  0  0  0
  2  4  1  0  0  0  0
  4  5  2  0  0  0  0
  4  6  2  0  0  0  0
  4  7  1  0  0  0  0
  7  8  4  0  0  0  0
  8  9  4  0  0  0  0
  9 10  4  0  0  0  0
 10 11  1  0  0  0  0
 11 12  1  0  0  0  0
 12 13  4  0  0  0  0
 13 14  4  0  0  0  0
 14 15  4  0  0  0  0
 15 16  4  0  0  0  0
 16 17  4  0  0  0  0
 12 17  4  0  0  0  0
 17 18  1  0  0  0  0
 18 19  1  0  0  0  0
 19 20  1  0  0  0  0
 20 21  1  0  0  0  0
 21 22  1  0  0  0  0
 22 23  1  0  0  0  0
 23 24  1  0  0  0  0
 24 25  1  0  0  0  0
 25 26  1  0  0  0  0
 25 27  1  0  0  0  0
 27 28  1  0  0  0  0
 22 28  1  0  0  0  0
 18 29  1  0  0  0  0
 10 29  4  0  0  0  0
 29 30  4  0  0  0  0
  7 30  4  0  0  0  0
M  END

> <ChembankId>
3189056

> <SMILES>
CN(C)S(=O)(=O)c1ccc2Sc3ccccc3N(CCCN4CCN(C)CC4)c2c1

> <InChI>
1/C22H30N4O2S2/c1-23(2)30(27,28)18-9-10-22-20(17-18)26(19-7-4-5-8-21(19)29-22)12-6-11-25-15-13-24(3)14-16-25/h4-5,7-10,17H,6,11-16H2,1-3H3

$$$$
3069075
  Marvin  11101114192D          

 23 24  0  0  0  0            999 V2000
    1.4289   -4.9500    0.0000 O   0  0  0  0  0  0  0  0  0  0  0  0
    2.1434   -5.3625    0.0000 C   0  0  0  0  0  0  0  0  0  0  0  0
    2.1434   -6.1875    0.0000 O   0  0  0  0  0  0  0  0  0  0  0  0
    2.8579   -4.9500    0.0000 C   0  0  0  0  0  0  0  0  0  0  0  0
    3.5724   -5.3625    0.0000 O   0  0  0  0  0  0  0  0  0  0  0  0
    4.2868   -4.9500    0.0000 C   0  0  0  0  0  0  0  0  0  0  0  0
    4.2868   -4.1250    0.0000 O   0  0  0  0  0  0  0  0  0  0  0  0
    5.0013   -5.3625    0.0000 C   0  0  0  0  0  0  0  0  0  0  0  0
    5.7158   -4.9500    0.0000 C   0  0  0  0  0  0  0  0  0  0  0  0
    5.7158   -4.1250    0.0000 C   0  0  0  0  0  0  0  0  0  0  0  0
    6.4302   -3.7125    0.0000 C   0  0  0  0  0  0  0  0  0  0  0  0
    7.1447   -4.1250    0.0000 C   0  0  0  0  0  0  0  0  0  0  0  0
    7.1447   -4.9500    0.0000 C   0  0  0  0  0  0  0  0  0  0  0  0
    6.4302   -5.3625    0.0000 C   0  0  0  0  0  0  0  0  0  0  0  0
    6.4302   -6.1875    0.0000 N   0  0  0  0  0  0  0  0  0  0  0  0
    7.1447   -6.6000    0.0000 C   0  0  0  0  0  0  0  0  0  0  0  0
    7.8592   -6.1875    0.0000 C   0  0  0  0  0  0  0  0  0  0  0  0
    7.8592   -5.3625    0.0000 Cl  0  0  0  0  0  0  0  0  0  0  0  0
    8.5737   -6.6000    0.0000 C   0  0  0  0  0  0  0  0  0  0  0  0
    8.5737   -7.4250    0.0000 C   0  0  0  0  0  0  0  0  0  0  0  0
    7.8592   -7.8375    0.0000 C   0  0  0  0  0  0  0  0  0  0  0  0
    7.1447   -7.4250    0.0000 C   0  0  0  0  0  0  0  0  0  0  0  0
    6.4302   -7.8375    0.0000 Cl  0  0  0  0  0  0  0  0  0  0  0  0
  1  2  1  0  0  0  0
  2  3  2  0  0  0  0
  2  4  1  0  0  0  0
  4  5  1  0  0  0  0
  5  6  1  0  0  0  0
  6  7  2  0  0  0  0
  6  8  1  0  0  0  0
  8  9  1  0  0  0  0
  9 10  4  0  0  0  0
 10 11  4  0  0  0  0
 11 12  4  0  0  0  0
 12 13  4  0  0  0  0
 13 14  4  0  0  0  0
  9 14  4  0  0  0  0
 14 15  1  0  0  0  0
 15 16  1  0  0  0  0
 16 17  4  0  0  0  0
 17 18  1  0  0  0  0
 17 19  4  0  0  0  0
 19 20  4  0  0  0  0
 20 21  4  0  0  0  0
 21 22  4  0  0  0  0
 16 22  4  0  0  0  0
 22 23  1  0  0  0  0
M  END

> <ChembankId>
3069075

> <SMILES>
OC(=O)COC(=O)Cc1ccccc1Nc2c(Cl)cccc2Cl

> <InChI>
1/C16H13Cl2NO4/c17-11-5-3-6-12(18)16(11)19-13-7-2-1-4-10(13)8-15(22)23-9-14(20)21/h1-7,19H,8-9H2,(H,20,21)

$$$$
1428839
  Marvin  11101114192D          

 17 19  0  0  0  0            999 V2000
    2.5645    2.4750    0.0000 C   0  0  0  0  0  0  0  0  0  0  0  0
    3.2789    2.0625    0.0000 N   0  0  0  0  0  0  0  0  0  0  0  0
    3.2789    1.2375    0.0000 C   0  0  0  0  0  0  0  0  0  0  0  0
    3.9934    0.8250    0.0000 N   0  0  0  0  0  0  0  0  0  0  0  0
    3.9934    0.0000    0.0000 C   0  0  0  0  0  0  0  0  0  0  0  0
    3.2789   -0.4125    0.0000 N   0  0  0  0  0  0  0  0  0  0  0  0
    2.5645    0.0000    0.0000 C   0  0  0  0  0  0  0  0  0  0  0  0
    1.7798   -0.2549    0.0000 N   0  0  0  0  0  0  0  0  0  0  0  0
    1.2949    0.4125    0.0000 C   0  0  0  0  0  0  0  0  0  0  0  0
    1.7798    1.0799    0.0000 N   0  0  0  0  0  0  0  0  0  0  0  0
    2.5645    0.8250    0.0000 C   0  0  0  0  0  0  0  0  0  0  0  0
    2.5645    3.3000    0.0000 C   0  0  0  0  0  0  0  0  0  0  0  0
    1.8500    3.7125    0.0000 C   0  0  0  0  0  0  0  0  0  0  0  0
    1.8500    4.5375    0.0000 C   0  0  0  0  0  0  0  0  0  0  0  0
    2.5645    4.9500    0.0000 C   0  0  0  0  0  0  0  0  0  0  0  0
    3.2789    4.5375    0.0000 C   0  0  0  0  0  0  0  0  0  0  0  0
    3.2789    3.7125    0.0000 C   0  0  0  0  0  0  0  0  0  0  0  0
  1  2  1  0  0  0  0
  2  3  1  0  0  0  0
  3  4  4  0  0  0  0
  4  5  4  0  0  0  0
  5  6  4  0  0  0  0
  6  7  4  0  0  0  0
  7  8  4  0  0  0  0
  8  9  4  0  0  0  0
  9 10  4  0  0  0  0
 10 11  4  0  0  0  0
  3 11  4  0  0  0  0
  7 11  4  0  0  0  0
  1 12  1  0  0  0  0
 12 13  4  0  0  0  0
 13 14  4  0  0  0  0
 14 15  4  0  0  0  0
 15 16  4  0  0  0  0
 16 17  4  0  0  0  0
 12 17  4  0  0  0  0
M  STY  1   1 DAT
M  SAL   1  1   8
M  SDT   1 MRV_IMPLICIT_H                                        
M  SDD   1     0.0000    0.0000    DR    ALL  0       0  
M  SED   1 IMPL_H1
M  END

> <ChembankId>
1428839

> <SMILES>
C(Nc1ncnc2[nH]cnc12)c3ccccc3

> <InChI>
1/C12H11N5/c1-2-4-9(5-3-1)6-13-11-10-12(15-7-14-10)17-8-16-11/h1-5,7-8H,6H2,(H2,13,14,15,16,17)

$$$$
3069077
  Marvin  11101114192D          

 21 22  0  0  0  0            999 V2000
    1.4289    0.8250    0.0000 O   0  0  0  0  0  0  0  0  0  0  0  0
    1.4289    0.0000    0.0000 C   0  0  0  0  0  0  0  0  0  0  0  0
    0.7145   -0.4125    0.0000 O   0  0  0  0  0  0  0  0  0  0  0  0
    2.1434   -0.4125    0.0000 C   0  0  0  0  0  0  0  0  0  0  0  0
    2.1434   -1.2375    0.0000 C   0  0  0  0  0  0  0  0  0  0  0  0
    2.8579   -1.6500    0.0000 C   0  0  0  0  0  0  0  0  0  0  0  0
    2.8579   -2.4750    0.0000 C   0  0  0  0  0  0  0  0  0  0  0  0
    3.5724   -2.8875    0.0000 I   0  0  0  0  0  0  0  0  0  0  0  0
    2.1434   -2.8875    0.0000 C   0  0  0  0  0  0  0  0  0  0  0  0
    2.1434   -3.7125    0.0000 O   0  0  0  0  0  0  0  0  0  0  0  0
    1.4289   -4.1250    0.0000 C   0  0  0  0  0  0  0  0  0  0  0  0
    1.4289   -4.9500    0.0000 C   0  0  0  0  0  0  0  0  0  0  0  0
    0.7145   -5.3625    0.0000 C   0  0  0  0  0  0  0  0  0  0  0  0
   -0.0000   -4.9500    0.0000 C   0  0  0  0  0  0  0  0  0  0  0  0
   -0.7145   -5.3625    0.0000 O   0  0  0  0  0  0  0  0  0  0  0  0
   -0.0000   -4.1250    0.0000 C   0  0  0  0  0  0  0  0  0  0  0  0
   -0.7145   -3.7125    0.0000 I   0  0  0  0  0  0  0  0  0  0  0  0
    0.7145   -3.7125    0.0000 C   0  0  0  0  0  0  0  0  0  0  0  0
    1.4289   -2.4750    0.0000 C   0  0  0  0  0  0  0  0  0  0  0  0
    0.7145   -2.8875    0.0000 I   0  0  0  0  0  0  0  0  0  0  0  0
    1.4289   -1.6500    0.0000 C   0  0  0  0  0  0  0  0  0  0  0  0
  1  2  1  0  0  0  0
  2  3  2  0  0  0  0
  2  4  1  0  0  0  0
  4  5  1  0  0  0  0
  5  6  4  0  0  0  0
  6  7  4  0  0  0  0
  7  8  1  0  0  0  0
  7  9  4  0  0  0  0
  9 10  1  0  0  0  0
 10 11  1  0  0  0  0
 11 12  4  0  0  0  0
 12 13  4  0  0  0  0
 13 14  4  0  0  0  0
 14 15  1  0  0  0  0
 14 16  4  0  0  0  0
 16 17  1  0  0  0  0
 16 18  4  0  0  0  0
 11 18  4  0  0  0  0
  9 19  4  0  0  0  0
 19 20  1  0  0  0  0
 19 21  4  0  0  0  0
  5 21  4  0  0  0  0
M  END

> <ChembankId>
3069077

> <SMILES>
OC(=O)Cc1cc(I)c(Oc2ccc(O)c(I)c2)c(I)c1

> <InChI>
1/C14H9I3O4/c15-9-6-8(1-2-12(9)18)21-14-10(16)3-7(4-11(14)17)5-13(19)20/h1-4,6,18H,5H2,(H,19,20)

$$$$
3189175
  Marvin  11101114192D          

 17 18  0  0  1  0            999 V2000
    2.1434   -1.2375    0.0000 C   0  0  0  0  0  0  0  0  0  0  0  0
    1.4289   -1.6500    0.0000 O   0  0  0  0  0  0  0  0  0  0  0  0
    1.4289   -2.4750    0.0000 C   0  0  0  0  0  0  0  0  0  0  0  0
    2.1434   -2.8875    0.0000 C   0  0  0  0  0  0  0  0  0  0  0  0
    2.1434   -3.7125    0.0000 C   0  0  0  0  0  0  0  0  0  0  0  0
    2.8579   -4.1250    0.0000 O   0  0  0  0  0  0  0  0  0  0  0  0
    1.4289   -4.1250    0.0000 O   0  0  0  0  0  0  0  0  0  0  0  0
    0.7145   -3.7125    0.0000 C   0  0  2  0  0  0  0  0  0  0  0  0
    0.7145   -2.8875    0.0000 C   0  0  0  0  0  0  0  0  0  0  0  0
    0.0000   -4.1250    0.0000 C   0  0  0  0  0  0  0  0  0  0  0  0
    0.0000   -4.9500    0.0000 C   0  0  0  0  0  0  0  0  0  0  0  0
   -0.7145   -5.3625    0.0000 C   0  0  0  0  0  0  0  0  0  0  0  0
   -0.7145   -6.1875    0.0000 C   0  0  0  0  0  0  0  0  0  0  0  0
   -1.4289   -6.6000    0.0000 C   0  0  0  0  0  0  0  0  0  0  0  0
   -2.1434   -6.1875    0.0000 C   0  0  0  0  0  0  0  0  0  0  0  0
   -2.1434   -5.3625    0.0000 C   0  0  0  0  0  0  0  0  0  0  0  0
   -1.4289   -4.9500    0.0000 C   0  0  0  0  0  0  0  0  0  0  0  0
  1  2  1  0  0  0  0
  2  3  1  0  0  0  0
  3  4  2  0  0  0  0
  4  5  1  0  0  0  0
  5  6  2  0  0  0  0
  5  7  1  0  0  0  0
  7  8  1  0  0  0  0
  8  9  1  0  0  0  0
  3  9  1  0  0  0  0
  8 10  1  1  0  0  0
 10 11  2  0  0  0  0
 11 12  1  0  0  0  0
 12 13  4  0  0  0  0
 13 14  4  0  0  0  0
 14 15  4  0  0  0  0
 15 16  4  0  0  0  0
 16 17  4  0  0  0  0
 12 17  4  0  0  0  0
M  END

> <ChembankId>
3189175

> <SMILES>
COC1=CC(=O)O[C@H](C1)/C=C/c2ccccc2

> <InChI>
1/C14H14O3/c1-16-13-9-12(17-14(15)10-13)8-7-11-5-3-2-4-6-11/h2-8,10,12H,9H2,1H3

$$$$
3069144
  Marvin  11101114192D          

 23 26  0  0  1  0            999 V2000
    0.8111    0.6467    0.0000 C   0  0  0  0  0  0  0  0  0  0  0  0
    0.4999   -0.1173    0.0000 N   0  3  0  0  0  0  0  0  0  0  0  0
   -0.3203   -0.0281    0.0000 O   0  5  0  0  0  0  0  0  0  0  0  0
    1.0605   -0.5572    0.0000 C   0  0  1  0  0  0  0  0  0  0  0  0
    1.9893   -0.5417    0.0000 C   0  0  0  0  0  0  0  0  0  0  0  0
    2.1275   -1.3591    0.0000 C   0  0  1  0  0  0  0  0  0  0  0  0
    1.6113   -0.9304    0.0000 C   0  0  0  0  0  0  0  0  0  0  0  0
    0.6396   -0.9304    0.0000 C   0  0  2  0  0  0  0  0  0  0  0  0
    0.1197   -1.6427    0.0000 C   0  0  1  0  0  0  0  0  0  0  0  0
    0.8432   -2.0391    0.0000 O   0  0  0  0  0  0  0  0  0  0  0  0
    0.8248   -1.2143    0.0000 C   0  0  1  0  0  0  0  0  0  0  0  0
    2.5393   -2.0740    0.0000 O   0  0  0  0  0  0  0  0  0  0  0  0
    2.1261   -2.7880    0.0000 C   0  0  0  0  0  0  0  0  0  0  0  0
    1.3011   -2.7872    0.0000 O   0  0  0  0  0  0  0  0  0  0  0  0
    2.5379   -3.5029    0.0000 C   0  0  2  0  0  0  0  0  0  0  0  0
    3.3629   -3.5037    0.0000 C   0  0  0  0  0  0  0  0  0  0  0  0
    3.7747   -4.2186    0.0000 O   0  0  0  0  0  0  0  0  0  0  0  0
    2.1247   -4.2170    0.0000 C   0  0  0  0  0  0  0  0  0  0  0  0
    2.5365   -4.9319    0.0000 C   0  0  0  0  0  0  0  0  0  0  0  0
    2.1233   -5.6459    0.0000 C   0  0  0  0  0  0  0  0  0  0  0  0
    1.2983   -5.6451    0.0000 C   0  0  0  0  0  0  0  0  0  0  0  0
    0.8865   -4.9302    0.0000 C   0  0  0  0  0  0  0  0  0  0  0  0
    1.2997   -4.2162    0.0000 C   0  0  0  0  0  0  0  0  0  0  0  0
  1  2  1  0  0  0  0
  2  3  1  0  0  0  0
  2  4  1  0  0  0  0
  4  5  1  1  0  0  0
  5  6  1  0  0  0  0
  6  7  1  0  0  0  0
  8  7  1  6  0  0  0
  2  8  1  0  0  0  0
  8  9  1  0  0  0  0
  9 10  1  6  0  0  0
 11 10  1  6  0  0  0
  9 11  1  0  0  0  0
  4 11  1  0  0  0  0
  6 12  1  6  0  0  0
 12 13  1  0  0  0  0
 13 14  2  0  0  0  0
 13 15  1  0  0  0  0
 15 16  1  0  0  0  0
 16 17  1  0  0  0  0
 15 18  1  6  0  0  0
 18 19  4  0  0  0  0
 19 20  4  0  0  0  0
 20 21  4  0  0  0  0
 21 22  4  0  0  0  0
 22 23  4  0  0  0  0
 18 23  4  0  0  0  0
M  CHG  2   2   1   3  -1
M  END

> <ChembankId>
3069144

> <SMILES>
C[N+]1([O-])[C@H]2C[C@@H](C[C@@H]1[C@H]3O[C@H]32)OC(=O)[C@H](CO)c4ccccc4

> <InChI>
1/C17H21NO5/c1-18(21)13-7-11(8-14(18)16-15(13)23-16)22-17(20)12(9-19)10-5-3-2-4-6-10/h2-6,11-16,19H,7-9H2,1H3

$$$$
3487401
  Marvin  11101114192D          

 16 16  0  0  0  0            999 V2000
   -3.5724   -2.8875    0.0000 N   0  0  0  0  0  0  0  0  0  0  0  0
   -2.8579   -3.3000    0.0000 C   0  0  0  0  0  0  0  0  0  0  0  0
   -2.8579   -4.1250    0.0000 O   0  0  0  0  0  0  0  0  0  0  0  0
   -2.1434   -2.8875    0.0000 O   0  0  0  0  0  0  0  0  0  0  0  0
   -1.4289   -3.3000    0.0000 C   0  0  0  0  0  0  0  0  0  0  0  0
   -0.7145   -2.8875    0.0000 C   0  0  0  0  0  0  0  0  0  0  0  0
   -0.7145   -2.0625    0.0000 O   0  0  0  0  0  0  0  0  0  0  0  0
    0.0000   -3.3000    0.0000 C   0  0  0  0  0  0  0  0  0  0  0  0
    0.7145   -2.8875    0.0000 O   0  0  0  0  0  0  0  0  0  0  0  0
    1.4289   -3.3000    0.0000 C   0  0  0  0  0  0  0  0  0  0  0  0
    2.1434   -2.8875    0.0000 C   0  0  0  0  0  0  0  0  0  0  0  0
    2.8579   -3.3000    0.0000 C   0  0  0  0  0  0  0  0  0  0  0  0
    2.8579   -4.1250    0.0000 C   0  0  0  0  0  0  0  0  0  0  0  0
    3.5724   -4.5375    0.0000 Cl  0  0  0  0  0  0  0  0  0  0  0  0
    2.1434   -4.5375    0.0000 C   0  0  0  0  0  0  0  0  0  0  0  0
    1.4289   -4.1250    0.0000 C   0  0  0  0  0  0  0  0  0  0  0  0
  1  2  1  0  0  0  0
  2  3  2  0  0  0  0
  2  4  1  0  0  0  0
  4  5  1  0  0  0  0
  5  6  1  0  0  0  0
  6  7  1  0  0  0  0
  6  8  1  0  0  0  0
  8  9  1  0  0  0  0
  9 10  1  0  0  0  0
 10 11  4  0  0  0  0
 11 12  4  0  0  0  0
 12 13  4  0  0  0  0
 13 14  1  0  0  0  0
 13 15  4  0  0  0  0
 15 16  4  0  0  0  0
 10 16  4  0  0  0  0
M  END

> <ChembankId>
3487401

> <SMILES>
NC(=O)OCC(O)COc1ccc(Cl)cc1

> <InChI>
1/C10H12ClNO4/c11-7-1-3-9(4-2-7)15-5-8(13)6-16-10(12)14/h1-4,8,13H,5-6H2,(H2,12,14)

$$$$
3101
  Marvin  11101114192D          

 29 32  0  0  0  0            999 V2000
    0.0000   -1.6500    0.0000 C   0  0  0  0  0  0  0  0  0  0  0  0
    0.7145   -1.2375    0.0000 C   0  0  0  0  0  0  0  0  0  0  0  0
    0.7145   -0.4125    0.0000 C   0  0  0  0  0  0  0  0  0  0  0  0
    1.4289    0.0000    0.0000 O   0  0  0  0  0  0  0  0  0  0  0  0
    2.1434   -0.4125    0.0000 C   0  0  0  0  0  0  0  0  0  0  0  0
    2.8579    0.0000    0.0000 C   0  0  0  0  0  0  0  0  0  0  0  0
    3.5724   -0.4125    0.0000 C   0  0  0  0  0  0  0  0  0  0  0  0
    3.5724   -1.2375    0.0000 C   0  0  0  0  0  0  0  0  0  0  0  0
    2.8579   -1.6500    0.0000 C   0  0  0  0  0  0  0  0  0  0  0  0
    2.1434   -1.2375    0.0000 C   0  0  0  0  0  0  0  0  0  0  0  0
    1.4289   -1.6500    0.0000 C   0  0  0  0  0  0  0  0  0  0  0  0
    1.4289   -2.4750    0.0000 O   0  0  0  0  0  0  0  0  0  0  0  0
    2.8579    0.8250    0.0000 C   0  0  0  0  0  0  0  0  0  0  0  0
    2.1434    1.2375    0.0000 O   0  0  0  0  0  0  0  0  0  0  0  0
    3.5724    1.2375    0.0000 O   0  0  0  0  0  0  0  0  0  0  0  0
    3.5724    2.0625    0.0000 C   0  0  0  0  0  0  0  0  0  0  0  0
    4.2868    2.4750    0.0000 C   0  0  0  0  0  0  0  0  0  0  0  0
    4.2868    3.3000    0.0000 N   0  0  0  0  0  0  0  0  0  0  0  0
    3.5724    3.7125    0.0000 C   0  0  0  0  0  0  0  0  0  0  0  0
    3.5724    4.5375    0.0000 C   0  0  0  0  0  0  0  0  0  0  0  0
    4.2868    4.9500    0.0000 C   0  0  0  0  0  0  0  0  0  0  0  0
    5.0013    4.5375    0.0000 C   0  0  0  0  0  0  0  0  0  0  0  0
    5.0013    3.7125    0.0000 C   0  0  0  0  0  0  0  0  0  0  0  0
    0.0000    0.0000    0.0000 C   0  0  0  0  0  0  0  0  0  0  0  0
   -0.7145   -0.4125    0.0000 C   0  0  0  0  0  0  0  0  0  0  0  0
   -1.4289   -0.0000    0.0000 C   0  0  0  0  0  0  0  0  0  0  0  0
   -1.4289    0.8250    0.0000 C   0  0  0  0  0  0  0  0  0  0  0  0
   -0.7145    1.2375    0.0000 C   0  0  0  0  0  0  0  0  0  0  0  0
    0.0000    0.8250    0.0000 C   0  0  0  0  0  0  0  0  0  0  0  0
  1  2  1  0  0  0  0
  2  3  4  0  0  0  0
  3  4  4  0  0  0  0
  4  5  4  0  0  0  0
  5  6  4  0  0  0  0
  6  7  4  0  0  0  0
  7  8  4  0  0  0  0
  8  9  4  0  0  0  0
  9 10  4  0  0  0  0
  5 10  4  0  0  0  0
 10 11  4  0  0  0  0
  2 11  4  0  0  0  0
 11 12  2  0  0  0  0
  6 13  1  0  0  0  0
 13 14  2  0  0  0  0
 13 15  1  0  0  0  0
 15 16  1  0  0  0  0
 16 17  1  0  0  0  0
 17 18  1  0  0  0  0
 18 19  1  0  0  0  0
 19 20  1  0  0  0  0
 20 21  1  0  0  0  0
 21 22  1  0  0  0  0
 22 23  1  0  0  0  0
 18 23  1  0  0  0  0
  3 24  1  0  0  0  0
 24 25  4  0  0  0  0
 25 26  4  0  0  0  0
 26 27  4  0  0  0  0
 27 28  4  0  0  0  0
 28 29  4  0  0  0  0
 24 29  4  0  0  0  0
M  END

> <ChembankId>
3101

> <SMILES>
Cc1c(oc2c(cccc2c1=O)C(=O)OCCN3CCCCC3)c4ccccc4

> <InChI>
1/C24H25NO4/c1-17-21(26)19-11-8-12-20(23(19)29-22(17)18-9-4-2-5-10-18)24(27)28-16-15-25-13-6-3-7-14-25/h2,4-5,8-12H,3,6-7,13-16H2,1H3

$$$$
3036
  Marvin  11101114192D          

 23 25  0  0  0  0            999 V2000
    0.4125   -1.5395    0.0000 O   0  0  0  0  0  0  0  0  0  0  0  0
    0.8250   -0.8250    0.0000 C   0  0  0  0  0  0  0  0  0  0  0  0
    1.5395   -1.2375    0.0000 C   0  0  0  0  0  0  0  0  0  0  0  0
    2.2539   -0.8250    0.0000 C   0  0  0  0  0  0  0  0  0  0  0  0
    2.9684   -1.2375    0.0000 C   0  0  0  0  0  0  0  0  0  0  0  0
    3.6829   -0.8250    0.0000 N   0  0  0  0  0  0  0  0  0  0  0  0
    3.6829    0.0000    0.0000 C   0  0  0  0  0  0  0  0  0  0  0  0
    4.3974    0.4125    0.0000 C   0  0  0  0  0  0  0  0  0  0  0  0
    5.1118    0.0000    0.0000 C   0  0  0  0  0  0  0  0  0  0  0  0
    5.1118   -0.8250    0.0000 C   0  0  0  0  0  0  0  0  0  0  0  0
    4.3974   -1.2375    0.0000 C   0  0  0  0  0  0  0  0  0  0  0  0
    0.1105   -0.4125    0.0000 C   0  0  0  0  0  0  0  0  0  0  0  0
   -0.6039   -0.8250    0.0000 C   0  0  0  0  0  0  0  0  0  0  0  0
   -1.3184   -0.4125    0.0000 C   0  0  0  0  0  0  0  0  0  0  0  0
   -1.3184    0.4125    0.0000 C   0  0  0  0  0  0  0  0  0  0  0  0
   -0.6039    0.8250    0.0000 C   0  0  0  0  0  0  0  0  0  0  0  0
    0.1105    0.4125    0.0000 C   0  0  0  0  0  0  0  0  0  0  0  0
    1.2375   -0.1105    0.0000 C   0  0  0  0  0  0  0  0  0  0  0  0
    0.8250    0.6039    0.0000 C   0  0  0  0  0  0  0  0  0  0  0  0
    1.2375    1.3184    0.0000 C   0  0  0  0  0  0  0  0  0  0  0  0
    2.0625    1.3184    0.0000 C   0  0  0  0  0  0  0  0  0  0  0  0
    2.4750    0.6039    0.0000 C   0  0  0  0  0  0  0  0  0  0  0  0
    2.0625   -0.1105    0.0000 C   0  0  0  0  0  0  0  0  0  0  0  0
  1  2  1  0  0  0  0
  2  3  1  0  0  0  0
  3  4  1  0  0  0  0
  4  5  1  0  0  0  0
  5  6  1  0  0  0  0
  6  7  1  0  0  0  0
  7  8  1  0  0  0  0
  8  9  1  0  0  0  0
  9 10  1  0  0  0  0
 10 11  1  0  0  0  0
  6 11  1  0  0  0  0
  2 12  1  0  0  0  0
 12 13  4  0  0  0  0
 13 14  4  0  0  0  0
 14 15  4  0  0  0  0
 15 16  4  0  0  0  0
 16 17  4  0  0  0  0
 12 17  4  0  0  0  0
  2 18  1  0  0  0  0
 18 19  4  0  0  0  0
 19 20  4  0  0  0  0
 20 21  4  0  0  0  0
 21 22  4  0  0  0  0
 22 23  4  0  0  0  0
 18 23  4  0  0  0  0
M  END

> <ChembankId>
3036

> <SMILES>
OC(CCCN1CCCCC1)(c2ccccc2)c3ccccc3

> <InChI>
1/C21H27NO/c23-21(19-11-4-1-5-12-19,20-13-6-2-7-14-20)15-10-18-22-16-8-3-9-17-22/h1-2,4-7,11-14,23H,3,8-10,15-18H2

$$$$
1019722
  Marvin  11101114192D          

 22 24  0  0  0  0            999 V2000
    3.8990    7.3418    0.0000 C   0  0  0  0  0  0  0  0  0  0  0  0
    3.4343    6.6601    0.0000 N   0  0  0  0  0  0  0  0  0  0  0  0
    3.8468    5.9457    0.0000 C   0  0  0  0  0  0  0  0  0  0  0  0
    3.5454    5.1777    0.0000 C   0  0  0  0  0  0  0  0  0  0  0  0
    2.7570    4.9345    0.0000 C   0  0  0  0  0  0  0  0  0  0  0  0
    2.0754    5.3993    0.0000 N   0  0  0  0  0  0  0  0  0  0  0  0
    2.0137    6.2219    0.0000 C   0  0  0  0  0  0  0  0  0  0  0  0
    2.6185    6.7831    0.0000 C   0  0  0  0  0  0  0  0  0  0  0  0
    1.3609    4.9868    0.0000 C   0  0  0  0  0  0  0  0  0  0  0  0
    1.3609    4.1618    0.0000 C   0  0  0  0  0  0  0  0  0  0  0  0
    2.0754    3.7493    0.0000 C   0  0  0  0  0  0  0  0  0  0  0  0
    2.0754    2.9243    0.0000 C   0  0  0  0  0  0  0  0  0  0  0  0
    1.3609    2.5118    0.0000 C   0  0  0  0  0  0  0  0  0  0  0  0
    0.6464    2.9243    0.0000 C   0  0  0  0  0  0  0  0  0  0  0  0
    0.6464    3.7493    0.0000 C   0  0  0  0  0  0  0  0  0  0  0  0
    0.6464    5.3993    0.0000 C   0  0  0  0  0  0  0  0  0  0  0  0
   -0.0680    4.9868    0.0000 C   0  0  0  0  0  0  0  0  0  0  0  0
   -0.7825    5.3993    0.0000 C   0  0  0  0  0  0  0  0  0  0  0  0
   -0.7825    6.2243    0.0000 C   0  0  0  0  0  0  0  0  0  0  0  0
   -1.4970    6.6368    0.0000 Cl  0  0  0  0  0  0  0  0  0  0  0  0
   -0.0680    6.6368    0.0000 C   0  0  0  0  0  0  0  0  0  0  0  0
    0.6464    6.2243    0.0000 C   0  0  0  0  0  0  0  0  0  0  0  0
  1  2  1  0  0  0  0
  2  3  1  0  0  0  0
  3  4  1  0  0  0  0
  4  5  1  0  0  0  0
  5  6  1  0  0  0  0
  6  7  1  0  0  0  0
  7  8  1  0  0  0  0
  2  8  1  0  0  0  0
  6  9  1  0  0  0  0
  9 10  1  0  0  0  0
 10 11  4  0  0  0  0
 11 12  4  0  0  0  0
 12 13  4  0  0  0  0
 13 14  4  0  0  0  0
 14 15  4  0  0  0  0
 10 15  4  0  0  0  0
  9 16  1  0  0  0  0
 16 17  4  0  0  0  0
 17 18  4  0  0  0  0
 18 19  4  0  0  0  0
 19 20  1  0  0  0  0
 19 21  4  0  0  0  0
 21 22  4  0  0  0  0
 16 22  4  0  0  0  0
M  END

> <ChembankId>
1019722

> <SMILES>
CN1CCCN(CC1)C(c2ccccc2)c3ccc(Cl)cc3

> <InChI>
1/C19H23ClN2/c1-21-12-5-13-22(15-14-21)19(16-6-3-2-4-7-16)17-8-10-18(20)11-9-17/h2-4,6-11,19H,5,12-15H2,1H3

$$$$
3068682
  Marvin  11101114192D          

 23 25  0  0  0  0            999 V2000
    4.2584    1.1193    0.0000 C   0  0  0  0  0  0  0  0  0  0  0  0
    4.9728    1.5318    0.0000 N   0  0  0  0  0  0  0  0  0  0  0  0
    4.9728    2.3568    0.0000 C   0  0  0  0  0  0  0  0  0  0  0  0
    5.6873    1.1193    0.0000 C   0  0  0  0  0  0  0  0  0  0  0  0
    6.4018    1.5318    0.0000 C   0  0  0  0  0  0  0  0  0  0  0  0
    7.1162    1.1193    0.0000 C   0  0  0  0  0  0  0  0  0  0  0  0
    7.8307    1.5318    0.0000 O   0  0  0  0  0  0  0  0  0  0  0  0
    8.5452    1.1193    0.0000 C   0  0  0  0  0  0  0  0  0  0  0  0
    9.2989    1.4548    0.0000 N   0  0  0  0  0  0  0  0  0  0  0  0
    9.8509    0.8418    0.0000 N   0  0  0  0  0  0  0  0  0  0  0  0
   10.6714    0.9280    0.0000 C   0  0  0  0  0  0  0  0  0  0  0  0
   11.1563    0.2606    0.0000 C   0  0  0  0  0  0  0  0  0  0  0  0
   11.9768    0.3468    0.0000 C   0  0  0  0  0  0  0  0  0  0  0  0
   12.4617   -0.3207    0.0000 C   0  0  0  0  0  0  0  0  0  0  0  0
   12.1261   -1.0743    0.0000 C   0  0  0  0  0  0  0  0  0  0  0  0
   11.3057   -1.1606    0.0000 C   0  0  0  0  0  0  0  0  0  0  0  0
   10.8207   -0.4931    0.0000 C   0  0  0  0  0  0  0  0  0  0  0  0
    9.4384    0.1273    0.0000 C   0  0  0  0  0  0  0  0  0  0  0  0
    9.6933   -0.6573    0.0000 C   0  0  0  0  0  0  0  0  0  0  0  0
    9.1413   -1.2704    0.0000 C   0  0  0  0  0  0  0  0  0  0  0  0
    8.3343   -1.0989    0.0000 C   0  0  0  0  0  0  0  0  0  0  0  0
    8.0794   -0.3143    0.0000 C   0  0  0  0  0  0  0  0  0  0  0  0
    8.6314    0.2988    0.0000 C   0  0  0  0  0  0  0  0  0  0  0  0
  1  2  1  0  0  0  0
  2  3  1  0  0  0  0
  2  4  1  0  0  0  0
  4  5  1  0  0  0  0
  5  6  1  0  0  0  0
  6  7  1  0  0  0  0
  7  8  1  0  0  0  0
  8  9  4  0  0  0  0
  9 10  4  0  0  0  0
 10 11  1  0  0  0  0
 11 12  1  0  0  0  0
 12 13  4  0  0  0  0
 13 14  4  0  0  0  0
 14 15  4  0  0  0  0
 15 16  4  0  0  0  0
 16 17  4  0  0  0  0
 12 17  4  0  0  0  0
 10 18  4  0  0  0  0
 18 19  4  0  0  0  0
 19 20  4  0  0  0  0
 20 21  4  0  0  0  0
 21 22  4  0  0  0  0
 22 23  4  0  0  0  0
  8 23  4  0  0  0  0
 18 23  4  0  0  0  0
M  END

> <ChembankId>
3068682

> <SMILES>
CN(C)CCCOc1nn(Cc2ccccc2)c3ccccc13

> <InChI>
1/C19H23N3O/c1-21(2)13-8-14-23-19-17-11-6-7-12-18(17)22(20-19)15-16-9-4-3-5-10-16/h3-7,9-12H,8,13-15H2,1-2H3

$$$$
1045066
  Marvin  11101114192D          

 29 31  0  0  0  0            999 V2000
    2.8579   -4.1250    0.0000 O   0  0  0  0  0  0  0  0  0  0  0  0
    2.8579   -4.9500    0.0000 C   0  0  0  0  0  0  0  0  0  0  0  0
    2.1434   -5.3625    0.0000 N   0  0  0  0  0  0  0  0  0  0  0  0
    1.4289   -4.9500    0.0000 C   0  0  0  0  0  0  0  0  0  0  0  0
    0.7145   -5.3625    0.0000 C   0  0  0  0  0  0  0  0  0  0  0  0
    0.0000   -4.9500    0.0000 C   0  0  0  0  0  0  0  0  0  0  0  0
    0.0000   -4.1250    0.0000 C   0  0  0  0  0  0  0  0  0  0  0  0
    0.7145   -3.7125    0.0000 C   0  0  0  0  0  0  0  0  0  0  0  0
    1.4289   -4.1250    0.0000 C   0  0  0  0  0  0  0  0  0  0  0  0
    3.5724   -5.3625    0.0000 O   0  0  0  0  0  0  0  0  0  0  0  0
    4.2868   -4.9500    0.0000 C   0  0  0  0  0  0  0  0  0  0  0  0
    5.0013   -5.3625    0.0000 C   0  0  0  0  0  0  0  0  0  0  0  0
    5.0013   -6.1875    0.0000 C   0  0  0  0  0  0  0  0  0  0  0  0
    4.2868   -6.6000    0.0000 N   0  0  0  0  0  0  0  0  0  0  0  0
    4.2868   -7.4250    0.0000 C   0  0  0  0  0  0  0  0  0  0  0  0
    3.5724   -7.8375    0.0000 C   0  0  0  0  0  0  0  0  0  0  0  0
    2.8579   -7.4250    0.0000 C   0  0  0  0  0  0  0  0  0  0  0  0
    2.8579   -6.6000    0.0000 C   0  0  0  0  0  0  0  0  0  0  0  0
    3.5724   -6.1875    0.0000 C   0  0  0  0  0  0  0  0  0  0  0  0
    5.7158   -4.9500    0.0000 O   0  0  0  0  0  0  0  0  0  0  0  0
    6.4302   -5.3625    0.0000 C   0  0  0  0  0  0  0  0  0  0  0  0
    6.4302   -6.1875    0.0000 O   0  0  0  0  0  0  0  0  0  0  0  0
    7.1447   -4.9500    0.0000 N   0  0  0  0  0  0  0  0  0  0  0  0
    7.8592   -5.3625    0.0000 C   0  0  0  0  0  0  0  0  0  0  0  0
    8.5737   -4.9500    0.0000 C   0  0  0  0  0  0  0  0  0  0  0  0
    9.2881   -5.3625    0.0000 C   0  0  0  0  0  0  0  0  0  0  0  0
    9.2881   -6.1875    0.0000 C   0  0  0  0  0  0  0  0  0  0  0  0
    8.5737   -6.6000    0.0000 C   0  0  0  0  0  0  0  0  0  0  0  0
    7.8592   -6.1875    0.0000 C   0  0  0  0  0  0  0  0  0  0  0  0
  1  2  2  0  0  0  0
  2  3  1  0  0  0  0
  3  4  1  0  0  0  0
  4  5  4  0  0  0  0
  5  6  4  0  0  0  0
  6  7  4  0  0  0  0
  7  8  4  0  0  0  0
  8  9  4  0  0  0  0
  4  9  4  0  0  0  0
  2 10  1  0  0  0  0
 10 11  1  0  0  0  0
 11 12  1  0  0  0  0
 12 13  1  0  0  0  0
 13 14  1  0  0  0  0
 14 15  1  0  0  0  0
 15 16  1  0  0  0  0
 16 17  1  0  0  0  0
 17 18  1  0  0  0  0
 18 19  1  0  0  0  0
 14 19  1  0  0  0  0
 12 20  1  0  0  0  0
 20 21  1  0  0  0  0
 21 22  2  0  0  0  0
 21 23  1  0  0  0  0
 23 24  1  0  0  0  0
 24 25  4  0  0  0  0
 25 26  4  0  0  0  0
 26 27  4  0  0  0  0
 27 28  4  0  0  0  0
 28 29  4  0  0  0  0
 24 29  4  0  0  0  0
M  END

> <ChembankId>
1045066

> <SMILES>
O=C(Nc1ccccc1)OCC(CN2CCCCC2)OC(=O)Nc3ccccc3

> <InChI>
1/C22H27N3O4/c26-21(23-18-10-4-1-5-11-18)28-17-20(16-25-14-8-3-9-15-25)29-22(27)24-19-12-6-2-7-13-19/h1-2,4-7,10-13,20H,3,8-9,14-17H2,(H,23,26)(H,24,27)

$$$$
467359
  Marvin  11101114192D          

 25 27  0  0  0  0            999 V2000
   -3.5724   -2.8875    0.0000 C   0  0  0  0  0  0  0  0  0  0  0  0
   -2.8579   -2.4750    0.0000 C   0  0  0  0  0  0  0  0  0  0  0  0
   -2.1434   -2.8875    0.0000 N   0  0  0  0  0  0  0  0  0  0  0  0
   -2.1434   -3.7125    0.0000 C   0  0  0  0  0  0  0  0  0  0  0  0
   -2.8579   -4.1250    0.0000 C   0  0  0  0  0  0  0  0  0  0  0  0
   -1.4289   -2.4750    0.0000 C   0  0  0  0  0  0  0  0  0  0  0  0
   -0.7145   -2.8875    0.0000 C   0  0  0  0  0  0  0  0  0  0  0  0
    0.0000   -2.4750    0.0000 C   0  0  0  0  0  0  0  0  0  0  0  0
    0.7145   -2.8875    0.0000 C   0  0  0  0  0  0  0  0  0  0  0  0
    1.4289   -2.4750    0.0000 N   0  0  0  0  0  0  0  0  0  0  0  0
    1.4289   -1.6500    0.0000 C   0  0  0  0  0  0  0  0  0  0  0  0
    0.7145   -1.2375    0.0000 C   0  0  0  0  0  0  0  0  0  0  0  0
    0.7145   -0.4125    0.0000 C   0  0  0  0  0  0  0  0  0  0  0  0
    1.4289    0.0000    0.0000 N   0  0  0  0  0  0  0  0  0  0  0  0
    2.1434   -0.4125    0.0000 C   0  0  0  0  0  0  0  0  0  0  0  0
    2.8579    0.0000    0.0000 C   0  0  0  0  0  0  0  0  0  0  0  0
    3.5724   -0.4125    0.0000 C   0  0  0  0  0  0  0  0  0  0  0  0
    4.2868   -0.0000    0.0000 Cl  0  0  0  0  0  0  0  0  0  0  0  0
    3.5724   -1.2375    0.0000 C   0  0  0  0  0  0  0  0  0  0  0  0
    2.8579   -1.6500    0.0000 C   0  0  0  0  0  0  0  0  0  0  0  0
    2.1434   -1.2375    0.0000 C   0  0  0  0  0  0  0  0  0  0  0  0
    0.7145   -3.7125    0.0000 C   0  0  0  0  0  0  0  0  0  0  0  0
    0.0000   -4.1250    0.0000 C   0  0  0  0  0  0  0  0  0  0  0  0
   -0.7145   -3.7125    0.0000 C   0  0  0  0  0  0  0  0  0  0  0  0
   -1.4289   -4.1250    0.0000 O   0  0  0  0  0  0  0  0  0  0  0  0
  1  2  1  0  0  0  0
  2  3  1  0  0  0  0
  3  4  1  0  0  0  0
  4  5  1  0  0  0  0
  3  6  1  0  0  0  0
  6  7  1  0  0  0  0
  7  8  4  0  0  0  0
  8  9  4  0  0  0  0
  9 10  1  0  0  0  0
 10 11  1  0  0  0  0
 11 12  4  0  0  0  0
 12 13  4  0  0  0  0
 13 14  4  0  0  0  0
 14 15  4  0  0  0  0
 15 16  4  0  0  0  0
 16 17  4  0  0  0  0
 17 18  1  0  0  0  0
 17 19  4  0  0  0  0
 19 20  4  0  0  0  0
 20 21  4  0  0  0  0
 11 21  4  0  0  0  0
 15 21  4  0  0  0  0
  9 22  4  0  0  0  0
 22 23  4  0  0  0  0
 23 24  4  0  0  0  0
  7 24  4  0  0  0  0
 24 25  1  0  0  0  0
M  END

> <ChembankId>
467359

> <SMILES>
CCN(CC)Cc1cc(Nc2ccnc3cc(Cl)ccc23)ccc1O

> <InChI>
1/C20H22ClN3O/c1-3-24(4-2)13-14-11-16(6-8-20(14)25)23-18-9-10-22-19-12-15(21)5-7-17(18)19/h5-12,25H,3-4,13H2,1-2H3,(H,22,23)

$$$$
907527
  Marvin  11101114192D          

 14 15  0  0  0  0            999 V2000
    1.7889   -0.2419    0.0000 C   0  0  0  0  0  0  0  0  0  0  0  0
    2.5033   -0.6544    0.0000 C   0  0  0  0  0  0  0  0  0  0  0  0
    3.2178   -1.0669    0.0000 C   0  0  0  0  0  0  0  0  0  0  0  0
    3.9323   -1.4794    0.0000 C   0  0  0  0  0  0  0  0  0  0  0  0
    3.9323   -2.3044    0.0000 N   0  0  0  0  0  0  0  0  0  0  0  0
    4.5997   -2.7893    0.0000 C   0  0  0  0  0  0  0  0  0  0  0  0
    4.3448   -3.5740    0.0000 C   0  0  0  0  0  0  0  0  0  0  0  0
    3.5198   -3.5740    0.0000 C   0  0  0  0  0  0  0  0  0  0  0  0
    3.2648   -2.7893    0.0000 C   0  0  0  0  0  0  0  0  0  0  0  0
    1.7889    0.5831    0.0000 N   0  0  0  0  0  0  0  0  0  0  0  0
    1.1214    1.0680    0.0000 C   0  0  0  0  0  0  0  0  0  0  0  0
    1.3764    1.8526    0.0000 C   0  0  0  0  0  0  0  0  0  0  0  0
    2.2014    1.8526    0.0000 C   0  0  0  0  0  0  0  0  0  0  0  0
    2.4563    1.0680    0.0000 C   0  0  0  0  0  0  0  0  0  0  0  0
  1  2  1  0  0  0  0
  2  3  3  0  0  0  0
  3  4  1  0  0  0  0
  4  5  1  0  0  0  0
  5  6  1  0  0  0  0
  6  7  1  0  0  0  0
  7  8  1  0  0  0  0
  8  9  1  0  0  0  0
  5  9  1  0  0  0  0
  1 10  1  0  0  0  0
 10 11  1  0  0  0  0
 11 12  1  0  0  0  0
 12 13  1  0  0  0  0
 13 14  1  0  0  0  0
 10 14  1  0  0  0  0
M  END

> <ChembankId>
907527

> <SMILES>
C(C#CCN1CCCC1)N2CCCC2

> <InChI>
1/C12H20N2/c1-2-8-13(7-1)11-5-6-12-14-9-3-4-10-14/h1-4,7-12H2

$$$$
3189186
  Marvin  11101114192D          

 20 22  0  0  1  0            999 V2000
    3.9934    2.4750    0.0000 C   0  0  0  0  0  0  0  0  0  0  0  0
    3.2789    2.0625    0.0000 N   0  0  0  0  0  0  0  0  0  0  0  0
    3.2789    1.2375    0.0000 C   0  0  0  0  0  0  0  0  0  0  0  0
    3.9934    0.8250    0.0000 N   0  0  0  0  0  0  0  0  0  0  0  0
    3.9934    0.0000    0.0000 C   0  0  0  0  0  0  0  0  0  0  0  0
    3.2789   -0.4125    0.0000 N   0  0  0  0  0  0  0  0  0  0  0  0
    2.5645    0.0000    0.0000 C   0  0  0  0  0  0  0  0  0  0  0  0
    1.7798   -0.2549    0.0000 N   0  0  0  0  0  0  0  0  0  0  0  0
    1.2949    0.4125    0.0000 C   0  0  0  0  0  0  0  0  0  0  0  0
    1.7798    1.0799    0.0000 N   0  0  0  0  0  0  0  0  0  0  0  0
    2.5645    0.8250    0.0000 C   0  0  0  0  0  0  0  0  0  0  0  0
    1.5249   -1.0396    0.0000 C   0  0  2  0  0  0  0  0  0  0  0  0
    2.0098   -1.7070    0.0000 O   0  0  0  0  0  0  0  0  0  0  0  0
    1.5249   -2.3744    0.0000 C   0  0  2  0  0  0  0  0  0  0  0  0
    1.7798   -3.1591    0.0000 C   0  0  0  0  0  0  0  0  0  0  0  0
    2.5868   -3.3306    0.0000 O   0  0  0  0  0  0  0  0  0  0  0  0
    0.7403   -2.1195    0.0000 C   0  0  1  0  0  0  0  0  0  0  0  0
    0.0728   -2.6044    0.0000 O   0  0  0  0  0  0  0  0  0  0  0  0
    0.7403   -1.2945    0.0000 C   0  0  1  0  0  0  0  0  0  0  0  0
    0.0728   -0.8096    0.0000 O   0  0  0  0  0  0  0  0  0  0  0  0
  1  2  1  0  0  0  0
  2  3  1  0  0  0  0
  3  4  4  0  0  0  0
  4  5  4  0  0  0  0
  5  6  4  0  0  0  0
  6  7  4  0  0  0  0
  7  8  4  0  0  0  0
  8  9  4  0  0  0  0
  9 10  4  0  0  0  0
 10 11  4  0  0  0  0
  3 11  4  0  0  0  0
  7 11  4  0  0  0  0
 12  8  1  6  0  0  0
 12 13  1  0  0  0  0
 13 14  1  0  0  0  0
 14 15  1  6  0  0  0
 15 16  1  0  0  0  0
 14 17  1  0  0  0  0
 17 18  1  1  0  0  0
 17 19  1  0  0  0  0
 12 19  1  0  0  0  0
 19 20  1  1  0  0  0
M  END

> <ChembankId>
3189186

> <SMILES>
CNc1ncnc2n(cnc12)[C@@H]3O[C@H](CO)[C@@H](O)[C@H]3O

> <InChI>
1/C11H15N5O4/c1-12-9-6-10(14-3-13-9)16(4-15-6)11-8(19)7(18)5(2-17)20-11/h3-5,7-8,11,17-19H,2H2,1H3,(H,12,13,14)

$$$$
3189187
  Marvin  11101114192D          

 20 22  0  0  1  0            999 V2000
    4.0668    2.3479    0.0000 N   0  0  0  0  0  0  0  0  0  0  0  0
    3.3523    1.9354    0.0000 C   0  0  0  0  0  0  0  0  0  0  0  0
    3.3523    1.1104    0.0000 N   0  0  0  0  0  0  0  0  0  0  0  0
    2.6378    0.6979    0.0000 C   0  0  0  0  0  0  0  0  0  0  0  0
    2.6378   -0.1271    0.0000 S   0  0  0  0  0  0  0  0  0  0  0  0
    1.9233    1.1104    0.0000 C   0  0  0  0  0  0  0  0  0  0  0  0
    1.1387    0.8555    0.0000 N   0  0  0  0  0  0  0  0  0  0  0  0
    0.6538    1.5229    0.0000 C   0  0  0  0  0  0  0  0  0  0  0  0
    1.1387    2.1904    0.0000 N   0  0  0  0  0  0  0  0  0  0  0  0
    0.8838    2.9750    0.0000 C   0  0  2  0  0  0  0  0  0  0  0  0
    0.0992    3.2299    0.0000 O   0  0  0  0  0  0  0  0  0  0  0  0
    0.0992    4.0549    0.0000 C   0  0  2  0  0  0  0  0  0  0  0  0
   -0.5683    4.5399    0.0000 C   0  0  0  0  0  0  0  0  0  0  0  0
   -1.3220    4.2043    0.0000 O   0  0  0  0  0  0  0  0  0  0  0  0
    0.8838    4.3099    0.0000 C   0  0  1  0  0  0  0  0  0  0  0  0
    1.1387    5.0945    0.0000 O   0  0  0  0  0  0  0  0  0  0  0  0
    1.3687    3.6424    0.0000 C   0  0  1  0  0  0  0  0  0  0  0  0
    2.1937    3.6424    0.0000 O   0  0  0  0  0  0  0  0  0  0  0  0
    1.9233    1.9354    0.0000 C   0  0  0  0  0  0  0  0  0  0  0  0
    2.6378    2.3479    0.0000 N   0  0  0  0  0  0  0  0  0  0  0  0
  1  2  1  0  0  0  0
  2  3  4  0  0  0  0
  3  4  4  0  0  0  0
  4  5  1  0  0  0  0
  4  6  4  0  0  0  0
  6  7  4  0  0  0  0
  7  8  4  0  0  0  0
  8  9  4  0  0  0  0
 10  9  1  6  0  0  0
 10 11  1  0  0  0  0
 11 12  1  0  0  0  0
 12 13  1  6  0  0  0
 13 14  1  0  0  0  0
 12 15  1  0  0  0  0
 15 16  1  1  0  0  0
 15 17  1  0  0  0  0
 10 17  1  0  0  0  0
 17 18  1  1  0  0  0
  9 19  4  0  0  0  0
  6 19  4  0  0  0  0
 19 20  4  0  0  0  0
  2 20  4  0  0  0  0
M  END

> <ChembankId>
3189187

> <SMILES>
Nc1nc(S)c2ncn([C@@H]3O[C@H](CO)[C@@H](O)[C@H]3O)c2n1

> <InChI>
1/C10H13N5O4S/c11-10-13-7-4(8(20)14-10)12-2-15(7)9-6(18)5(17)3(1-16)19-9/h2-3,5-6,9,16-18H,1H2,(H3,11,13,14,20)

$$$$
3189191
  Marvin  11101114192D          

 26 26  0  0  0  0            999 V2000
   -2.8579    0.0000    0.0000 C   0  0  0  0  0  0  0  0  0  0  0  0
   -2.1434   -0.4125    0.0000 N   0  0  0  0  0  0  0  0  0  0  0  0
   -2.1434   -1.2375    0.0000 C   0  0  0  0  0  0  0  0  0  0  0  0
   -1.4289    0.0000    0.0000 C   0  0  0  0  0  0  0  0  0  0  0  0
   -1.4289    0.8250    0.0000 O   0  0  0  0  0  0  0  0  0  0  0  0
   -0.7145   -0.4125    0.0000 O   0  0  0  0  0  0  0  0  0  0  0  0
   -0.0000    0.0000    0.0000 C   0  0  0  0  0  0  0  0  0  0  0  0
    0.0000    0.8250    0.0000 C   0  0  0  0  0  0  0  0  0  0  0  0
    0.7145    1.2375    0.0000 C   0  0  0  0  0  0  0  0  0  0  0  0
    0.7145    2.0625    0.0000 O   0  0  0  0  0  0  0  0  0  0  0  0
    1.4289    2.4750    0.0000 C   0  0  0  0  0  0  0  0  0  0  0  0
    2.1434    2.0625    0.0000 O   0  0  0  0  0  0  0  0  0  0  0  0
    1.4289    3.3000    0.0000 N   0  0  0  0  0  0  0  0  0  0  0  0
    0.7145    3.7125    0.0000 C   0  0  0  0  0  0  0  0  0  0  0  0
    2.1434    3.7125    0.0000 C   0  0  0  0  0  0  0  0  0  0  0  0
    1.4289    0.8250    0.0000 C   0  0  0  0  0  0  0  0  0  0  0  0
    1.4289    0.0000    0.0000 C   0  0  0  0  0  0  0  0  0  0  0  0
    0.7145   -0.4125    0.0000 C   0  0  0  0  0  0  0  0  0  0  0  0
    2.1434   -0.4125    0.0000 C   0  0  0  0  0  0  0  0  0  0  0  0
    2.1434   -1.2375    0.0000 O   0  0  0  0  0  0  0  0  0  0  0  0
    2.8579    0.0000    0.0000 C   0  0  0  0  0  0  0  0  0  0  0  0
    3.5724   -0.4125    0.0000 N   0  0  0  0  0  0  0  0  0  0  0  0
    4.2868    0.0000    0.0000 C   0  0  0  0  0  0  0  0  0  0  0  0
    5.0013    0.4125    0.0000 C   0  0  0  0  0  0  0  0  0  0  0  0
    4.6993   -0.7145    0.0000 C   0  0  0  0  0  0  0  0  0  0  0  0
    3.8743    0.7145    0.0000 C   0  0  0  0  0  0  0  0  0  0  0  0
  1  2  1  0  0  0  0
  2  3  1  0  0  0  0
  2  4  1  0  0  0  0
  4  5  2  0  0  0  0
  4  6  1  0  0  0  0
  6  7  1  0  0  0  0
  7  8  4  0  0  0  0
  8  9  4  0  0  0  0
  9 10  1  0  0  0  0
 10 11  1  0  0  0  0
 11 12  2  0  0  0  0
 11 13  1  0  0  0  0
 13 14  1  0  0  0  0
 13 15  1  0  0  0  0
  9 16  4  0  0  0  0
 16 17  4  0  0  0  0
 17 18  4  0  0  0  0
  7 18  4  0  0  0  0
 17 19  1  0  0  0  0
 19 20  1  0  0  0  0
 19 21  1  0  0  0  0
 21 22  1  0  0  0  0
 22 23  1  0  0  0  0
 23 24  1  0  0  0  0
 23 25  1  0  0  0  0
 23 26  1  0  0  0  0
M  END

> <ChembankId>
3189191

> <SMILES>
CN(C)C(=O)Oc1cc(OC(=O)N(C)C)cc(c1)C(O)CNC(C)(C)C

> <InChI>
1/C18H29N3O5/c1-18(2,3)19-11-15(22)12-8-13(25-16(23)20(4)5)10-14(9-12)26-17(24)21(6)7/h8-10,15,19,22H,11H2,1-7H3

$$$$
3068885
  Marvin  11101114192D          

 28 31  0  0  1  0            999 V2000
    2.0630   -1.4167    0.0000 C   0  0  0  0  0  0  0  0  0  0  0  0
    2.8390   -1.6970    0.0000 C   0  0  1  0  0  0  0  0  0  0  0  0
    3.5218   -1.2340    0.0000 C   0  0  0  0  0  0  0  0  0  0  0  0
    4.1731   -1.7404    0.0000 C   0  0  1  0  0  0  0  0  0  0  0  0
    4.9853   -1.5952    0.0000 C   0  0  2  0  0  0  0  0  0  0  0  0
    5.2655   -0.8192    0.0000 C   0  0  0  0  0  0  0  0  0  0  0  0
    6.0777   -0.6740    0.0000 C   0  0  0  0  0  0  0  0  0  0  0  0
    6.6095   -1.3047    0.0000 C   0  0  0  0  0  0  0  0  0  0  0  0
    7.4216   -1.1595    0.0000 C   0  0  0  0  0  0  0  0  0  0  0  0
    7.9534   -1.7902    0.0000 C   0  0  0  0  0  0  0  0  0  0  0  0
    8.7655   -1.6450    0.0000 O   0  0  0  0  0  0  0  0  0  0  0  0
    7.6731   -2.5662    0.0000 C   0  0  0  0  0  0  0  0  0  0  0  0
    6.8610   -2.7114    0.0000 C   0  0  0  0  0  0  0  0  0  0  0  0
    6.3292   -2.0807    0.0000 C   0  0  1  0  0  0  0  0  0  0  0  0
    6.0489   -2.8566    0.0000 C   0  0  0  0  0  0  0  0  0  0  0  0
    5.5171   -2.2259    0.0000 C   0  0  2  0  0  0  0  0  0  0  0  0
    5.5766   -3.0487    0.0000 F   0  0  0  0  0  0  0  0  0  0  0  0
    5.2368   -3.0018    0.0000 C   0  0  1  0  0  0  0  0  0  0  0  0
    5.7686   -3.6325    0.0000 O   0  0  0  0  0  0  0  0  0  0  0  0
    4.4247   -3.1470    0.0000 C   0  0  0  0  0  0  0  0  0  0  0  0
    3.8928   -2.5163    0.0000 C   0  0  1  0  0  0  0  0  0  0  0  0
    3.5330   -3.2587    0.0000 C   0  0  0  0  0  0  0  0  0  0  0  0
    3.0683   -2.4895    0.0000 C   0  0  2  0  0  0  0  0  0  0  0  0
    2.9469   -3.3055    0.0000 O   0  0  0  0  0  0  0  0  0  0  0  0
    2.3074   -2.8084    0.0000 C   0  0  0  0  0  0  0  0  0  0  0  0
    2.2031   -3.6268    0.0000 O   0  0  0  0  0  0  0  0  0  0  0  0
    1.6508   -2.3089    0.0000 C   0  0  0  0  0  0  0  0  0  0  0  0
    0.8899   -2.6277    0.0000 O   0  0  0  0  0  0  0  0  0  0  0  0
  2  1  1  1  0  0  0
  2  3  1  0  0  0  0
  4  3  1  1  0  0  0
  4  5  1  0  0  0  0
  5  6  1  6  0  0  0
  6  7  1  0  0  0  0
  7  8  1  0  0  0  0
  8  9  2  0  0  0  0
  9 10  1  0  0  0  0
 10 11  2  0  0  0  0
 10 12  1  0  0  0  0
 12 13  2  0  0  0  0
 13 14  1  0  0  0  0
  8 14  1  0  0  0  0
 14 15  1  1  0  0  0
 14 16  1  0  0  0  0
  5 16  1  0  0  0  0
 16 17  1  6  0  0  0
 16 18  1  0  0  0  0
 18 19  1  1  0  0  0
 18 20  1  0  0  0  0
 20 21  1  0  0  0  0
  4 21  1  0  0  0  0
 21 22  1  1  0  0  0
 21 23  1  0  0  0  0
  2 23  1  0  0  0  0
 23 24  1  6  0  0  0
 23 25  1  1  0  0  0
 25 26  2  0  0  0  0
 25 27  1  0  0  0  0
 27 28  1  0  0  0  0
M  END

> <ChembankId>
3068885

> <SMILES>
C[C@H]1C[C@H]2[C@@H]3CCC4=CC(=O)C=C[C@]4(C)[C@@]3(F)[C@@H](O)C[C@]2(C)[C@@]1(O)C(=O)CO

> <InChI>
1/C22H29FO5/c1-12-8-16-15-5-4-13-9-14(25)6-7-19(13,2)21(15,23)17(26)10-20(16,3)22(12,28)18(27)11-24/h6-7,9,12,15-17,24,26,28H,4-5,8,10-11H2,1-3H3

$$$$
3189192
  Marvin  11101114192D          

 23 24  0  0  1  0            999 V2000
   -4.2868    4.1250    0.0000 C   0  0  0  0  0  0  0  0  0  0  0  0
   -4.2868    3.3000    0.0000 C   0  0  0  0  0  0  0  0  0  0  0  0
   -3.5724    2.8875    0.0000 N   0  0  0  0  0  0  0  0  0  0  0  0
   -3.5724    2.0625    0.0000 C   0  0  1  0  0  0  0  0  0  0  0  0
   -2.8579    1.6500    0.0000 C   0  0  0  0  0  0  0  0  0  0  0  0
   -2.8579    0.8250    0.0000 N   0  0  0  0  0  0  0  0  0  0  0  0
   -2.1434    0.4125    0.0000 C   0  0  0  0  0  0  0  0  0  0  0  0
   -1.4289    0.8250    0.0000 C   0  0  0  0  0  0  0  0  0  0  0  0
   -0.7145    0.4125    0.0000 C   0  0  0  0  0  0  0  0  0  0  0  0
    0.0000    0.8250    0.0000 O   0  0  0  0  0  0  0  0  0  0  0  0
    0.7145    0.4125    0.0000 C   0  0  0  0  0  0  0  0  0  0  0  0
   -3.5724    0.4125    0.0000 S   0  0  0  0  0  0  0  0  0  0  0  0
   -3.0421   -0.2195    0.0000 O   0  0  0  0  0  0  0  0  0  0  0  0
   -4.1027   -0.2195    0.0000 O   0  0  0  0  0  0  0  0  0  0  0  0
   -4.2868    0.8250    0.0000 C   0  0  0  0  0  0  0  0  0  0  0  0
   -5.0714    0.5701    0.0000 S   0  0  0  0  0  0  0  0  0  0  0  0
   -5.5564    1.2375    0.0000 C   0  0  0  0  0  0  0  0  0  0  0  0
   -5.0714    1.9049    0.0000 C   0  0  0  0  0  0  0  0  0  0  0  0
   -4.2868    1.6500    0.0000 C   0  0  0  0  0  0  0  0  0  0  0  0
   -6.3814    1.2375    0.0000 S   0  0  0  0  0  0  0  0  0  0  0  0
   -7.2064    1.2375    0.0000 O   0  0  0  0  0  0  0  0  0  0  0  0
   -6.3814    2.0625    0.0000 O   0  0  0  0  0  0  0  0  0  0  0  0
   -6.3814    0.4125    0.0000 N   0  0  0  0  0  0  0  0  0  0  0  0
  1  2  1  0  0  0  0
  2  3  1  0  0  0  0
  4  3  1  1  0  0  0
  4  5  1  0  0  0  0
  5  6  1  0  0  0  0
  6  7  1  0  0  0  0
  7  8  1  0  0  0  0
  8  9  1  0  0  0  0
  9 10  1  0  0  0  0
 10 11  1  0  0  0  0
  6 12  1  0  0  0  0
 12 13  2  0  0  0  0
 12 14  2  0  0  0  0
 12 15  1  0  0  0  0
 15 16  4  0  0  0  0
 16 17  4  0  0  0  0
 17 18  4  0  0  0  0
 18 19  4  0  0  0  0
  4 19  1  0  0  0  0
 15 19  4  0  0  0  0
 17 20  1  0  0  0  0
 20 21  2  0  0  0  0
 20 22  2  0  0  0  0
 20 23  1  0  0  0  0
M  END

> <ChembankId>
3189192

> <SMILES>
CCN[C@H]1CN(CCCOC)S(=O)(=O)c2sc(cc12)S(=O)(=O)N

> <InChI>
1/C12H21N3O5S3/c1-3-14-10-8-15(5-4-6-20-2)23(18,19)12-9(10)7-11(21-12)22(13,16)17/h7,10,14H,3-6,8H2,1-2H3,(H2,13,16,17)

$$$$
907366
  Marvin  11101114192D          

 36 39  0  0  0  0            999 V2000
   -7.1447    0.8250    0.0000 C   0  0  0  0  0  0  0  0  0  0  0  0
   -7.1447   -0.0000    0.0000 C   0  0  0  0  0  0  0  0  0  0  0  0
   -6.4302   -0.4125    0.0000 C   0  0  0  0  0  0  0  0  0  0  0  0
   -6.4302   -1.2375    0.0000 C   0  0  0  0  0  0  0  0  0  0  0  0
   -7.1447   -1.6500    0.0000 C   0  0  0  0  0  0  0  0  0  0  0  0
   -7.8592   -1.2375    0.0000 C   0  0  0  0  0  0  0  0  0  0  0  0
   -8.5737   -1.6500    0.0000 C   0  0  0  0  0  0  0  0  0  0  0  0
   -7.8592   -0.4125    0.0000 C   0  0  0  0  0  0  0  0  0  0  0  0
   -8.5737   -0.0000    0.0000 N   0  0  0  0  0  0  0  0  0  0  0  0
   -8.5737    0.8250    0.0000 C   0  0  0  0  0  0  0  0  0  0  0  0
   -7.8592    1.2375    0.0000 O   0  0  0  0  0  0  0  0  0  0  0  0
   -9.2881    1.2375    0.0000 C   0  0  0  0  0  0  0  0  0  0  0  0
   -9.2881    2.0625    0.0000 N   0  0  0  0  0  0  0  0  0  0  0  0
  -10.0026    2.4750    0.0000 C   0  0  0  0  0  0  0  0  0  0  0  0
  -10.0026    3.3000    0.0000 C   0  0  0  0  0  0  0  0  0  0  0  0
   -9.2881    3.7125    0.0000 N   0  0  0  0  0  0  0  0  0  0  0  0
   -9.2881    4.5375    0.0000 C   0  0  0  0  0  0  0  0  0  0  0  0
  -10.0026    4.9500    0.0000 C   0  0  0  0  0  0  0  0  0  0  0  0
  -10.0026    5.7750    0.0000 C   0  0  0  0  0  0  0  0  0  0  0  0
  -10.7171    6.1875    0.0000 C   0  0  0  0  0  0  0  0  0  0  0  0
  -10.7171    7.0125    0.0000 C   0  0  0  0  0  0  0  0  0  0  0  0
  -11.4315    7.4250    0.0000 C   0  0  0  0  0  0  0  0  0  0  0  0
  -11.4315    8.2500    0.0000 C   0  0  0  0  0  0  0  0  0  0  0  0
  -10.7171    8.6625    0.0000 C   0  0  0  0  0  0  0  0  0  0  0  0
  -10.7171    9.4875    0.0000 F   0  0  0  0  0  0  0  0  0  0  0  0
  -10.0026    8.2500    0.0000 C   0  0  0  0  0  0  0  0  0  0  0  0
  -10.0026    7.4250    0.0000 C   0  0  0  0  0  0  0  0  0  0  0  0
  -11.4315    5.7750    0.0000 C   0  0  0  0  0  0  0  0  0  0  0  0
  -11.4315    4.9500    0.0000 C   0  0  0  0  0  0  0  0  0  0  0  0
  -12.1460    4.5375    0.0000 C   0  0  0  0  0  0  0  0  0  0  0  0
  -12.8605    4.9500    0.0000 C   0  0  0  0  0  0  0  0  0  0  0  0
  -13.5749    4.5375    0.0000 F   0  0  0  0  0  0  0  0  0  0  0  0
  -12.8605    5.7750    0.0000 C   0  0  0  0  0  0  0  0  0  0  0  0
  -12.1460    6.1875    0.0000 C   0  0  0  0  0  0  0  0  0  0  0  0
   -8.5737    3.3000    0.0000 C   0  0  0  0  0  0  0  0  0  0  0  0
   -8.5737    2.4750    0.0000 C   0  0  0  0  0  0  0  0  0  0  0  0
  1  2  1  0  0  0  0
  2  3  4  0  0  0  0
  3  4  4  0  0  0  0
  4  5  4  0  0  0  0
  5  6  4  0  0  0  0
  6  7  1  0  0  0  0
  6  8  4  0  0  0  0
  2  8  4  0  0  0  0
  8  9  1  0  0  0  0
  9 10  1  0  0  0  0
 10 11  2  0  0  0  0
 10 12  1  0  0  0  0
 12 13  1  0  0  0  0
 13 14  1  0  0  0  0
 14 15  1  0  0  0  0
 15 16  1  0  0  0  0
 16 17  1  0  0  0  0
 17 18  1  0  0  0  0
 18 19  1  0  0  0  0
 19 20  1  0  0  0  0
 20 21  1  0  0  0  0
 21 22  4  0  0  0  0
 22 23  4  0  0  0  0
 23 24  4  0  0  0  0
 24 25  1  0  0  0  0
 24 26  4  0  0  0  0
 26 27  4  0  0  0  0
 21 27  4  0  0  0  0
 20 28  1  0  0  0  0
 28 29  4  0  0  0  0
 29 30  4  0  0  0  0
 30 31  4  0  0  0  0
 31 32  1  0  0  0  0
 31 33  4  0  0  0  0
 33 34  4  0  0  0  0
 28 34  4  0  0  0  0
 16 35  1  0  0  0  0
 35 36  1  0  0  0  0
 13 36  1  0  0  0  0
M  END

> <ChembankId>
907366

> <SMILES>
Cc1cccc(C)c1NC(=O)CN2CCN(CCCC(c3ccc(F)cc3)c4ccc(F)cc4)CC2

> <InChI>
1/C30H35F2N3O/c1-22-5-3-6-23(2)30(22)33-29(36)21-35-19-17-34(18-20-35)16-4-7-28(24-8-12-26(31)13-9-24)25-10-14-27(32)15-11-25/h3,5-6,8-15,28H,4,7,16-21H2,1-2H3,(H,33,36)

$$$$
3189305
  Marvin  11101114192D          

 45 49  0  0  0  0            999 V2000
    1.7862    0.8250    0.0000 C   0  0  0  0  0  0  0  0  0  0  0  0
    1.7862    0.0000    0.0000 N   0  0  0  0  0  0  0  0  0  0  0  0
    2.5006   -0.4125    0.0000 C   0  0  0  0  0  0  0  0  0  0  0  0
    2.5006   -1.2375    0.0000 C   0  0  0  0  0  0  0  0  0  0  0  0
    1.7862   -1.6500    0.0000 C   0  0  0  0  0  0  0  0  0  0  0  0
    1.0717   -1.2375    0.0000 N   0  0  0  0  0  0  0  0  0  0  0  0
    1.0717   -0.4125    0.0000 C   0  0  0  0  0  0  0  0  0  0  0  0
    0.3572    0.0000    0.0000 C   0  0  0  0  0  0  0  0  0  0  0  0
   -0.3572   -0.4125    0.0000 C   0  0  0  0  0  0  0  0  0  0  0  0
   -1.0717    0.0000    0.0000 C   0  0  0  0  0  0  0  0  0  0  0  0
   -1.7862   -0.4125    0.0000 C   0  0  0  0  0  0  0  0  0  0  0  0
   -2.5006    0.0000    0.0000 C   0  0  0  0  0  0  0  0  0  0  0  0
   -2.5006    0.8250    0.0000 C   0  0  0  0  0  0  0  0  0  0  0  0
   -1.7862    1.2375    0.0000 C   0  0  0  0  0  0  0  0  0  0  0  0
   -1.7862    2.0625    0.0000 O   0  0  0  0  0  0  0  0  0  0  0  0
   -1.0717    0.8250    0.0000 C   0  0  0  0  0  0  0  0  0  0  0  0
    8.1944    3.0582    0.0000 O   0  0  0  0  0  0  0  0  0  0  0  0
    8.1944    2.2332    0.0000 C   0  0  0  0  0  0  0  0  0  0  0  0
    8.9089    1.8207    0.0000 O   0  0  0  0  0  0  0  0  0  0  0  0
    7.4800    1.8207    0.0000 C   0  0  0  0  0  0  0  0  0  0  0  0
    6.7655    2.2332    0.0000 C   0  0  0  0  0  0  0  0  0  0  0  0
    6.0510    1.8207    0.0000 C   0  0  0  0  0  0  0  0  0  0  0  0
    5.3365    2.2332    0.0000 C   0  0  0  0  0  0  0  0  0  0  0  0
    4.6221    1.8207    0.0000 C   0  0  0  0  0  0  0  0  0  0  0  0
    4.6221    0.9957    0.0000 C   0  0  0  0  0  0  0  0  0  0  0  0
    5.3365    0.5832    0.0000 C   0  0  0  0  0  0  0  0  0  0  0  0
    6.0510    0.9957    0.0000 C   0  0  0  0  0  0  0  0  0  0  0  0
    6.7655    0.5832    0.0000 C   0  0  0  0  0  0  0  0  0  0  0  0
    6.7655   -0.2418    0.0000 C   0  0  0  0  0  0  0  0  0  0  0  0
    7.4800   -0.6543    0.0000 C   0  0  0  0  0  0  0  0  0  0  0  0
    8.1944   -0.2418    0.0000 C   0  0  0  0  0  0  0  0  0  0  0  0
    8.9089   -0.6543    0.0000 C   0  0  0  0  0  0  0  0  0  0  0  0
    9.6234   -0.2418    0.0000 C   0  0  0  0  0  0  0  0  0  0  0  0
   10.3378   -0.6543    0.0000 C   0  0  0  0  0  0  0  0  0  0  0  0
   10.3378   -1.4793    0.0000 C   0  0  0  0  0  0  0  0  0  0  0  0
    9.6234   -1.8918    0.0000 C   0  0  0  0  0  0  0  0  0  0  0  0
    8.9089   -1.4793    0.0000 C   0  0  0  0  0  0  0  0  0  0  0  0
    8.1944   -1.8918    0.0000 C   0  0  0  0  0  0  0  0  0  0  0  0
    8.1944   -2.7168    0.0000 C   0  0  0  0  0  0  0  0  0  0  0  0
    7.4800   -3.1293    0.0000 O   0  0  0  0  0  0  0  0  0  0  0  0
    8.9089   -3.1293    0.0000 O   0  0  0  0  0  0  0  0  0  0  0  0
    7.4800   -1.4793    0.0000 C   0  0  0  0  0  0  0  0  0  0  0  0
    6.7655   -1.8918    0.0000 O   0  0  0  0  0  0  0  0  0  0  0  0
    7.4800    0.9957    0.0000 C   0  0  0  0  0  0  0  0  0  0  0  0
    8.1944    0.5832    0.0000 O   0  0  0  0  0  0  0  0  0  0  0  0
  1  2  1  0  0  0  0
  2  3  1  0  0  0  0
  3  4  1  0  0  0  0
  4  5  1  0  0  0  0
  5  6  1  0  0  0  0
  6  7  2  0  0  0  0
  2  7  1  0  0  0  0
  7  8  1  0  0  0  0
  8  9  2  0  0  0  0
  9 10  1  0  0  0  0
 10 11  4  0  0  0  0
 11 12  4  0  0  0  0
 12 13  4  0  0  0  0
 13 14  4  0  0  0  0
 14 15  1  0  0  0  0
 14 16  4  0  0  0  0
 10 16  4  0  0  0  0
 17 18  1  0  0  0  0
 18 19  2  0  0  0  0
 18 20  1  0  0  0  0
 20 21  4  0  0  0  0
 21 22  4  0  0  0  0
 22 23  4  0  0  0  0
 23 24  4  0  0  0  0
 24 25  4  0  0  0  0
 25 26  4  0  0  0  0
 26 27  4  0  0  0  0
 22 27  4  0  0  0  0
 27 28  4  0  0  0  0
 28 29  1  0  0  0  0
 29 30  1  0  0  0  0
 30 31  4  0  0  0  0
 31 32  4  0  0  0  0
 32 33  4  0  0  0  0
 33 34  4  0  0  0  0
 34 35  4  0  0  0  0
 35 36  4  0  0  0  0
 36 37  4  0  0  0  0
 32 37  4  0  0  0  0
 37 38  4  0  0  0  0
 38 39  1  0  0  0  0
 39 40  2  0  0  0  0
 39 41  1  0  0  0  0
 38 42  4  0  0  0  0
 30 42  4  0  0  0  0
 42 43  1  0  0  0  0
 28 44  4  0  0  0  0
 20 44  4  0  0  0  0
 44 45  1  0  0  0  0
M  END

> <ChembankId>
3189305

> <SMILES>
CN1CCCN=C1/C=C/c2cccc(O)c2.OC(=O)c1cc2ccccc2c(Cc3cc4ccccc4c(C(=O)O)c3O)c1O

> <InChI>
1/C23H16O6.C13H16N2O/c24-20-14(9-12-5-2-4-8-16(12)19(20)23(28)29)11-17-15-7-3-1-6-13(15)10-18(21(17)25)22(26)27;1-15-9-3-8-14-13(15)7-6-11-4-2-5-12(16)10-11/h1-10,24-25H,11H2,(H,26,27)(H,28,29);2,4-7,10,16H,3,8-9H2,1H3/b;7-6+

$$$$
3068973
  Marvin  11101114192D          

 24 27  0  0  0  0            999 V2000
   -0.7268   -2.1330    0.0000 C   0  0  0  0  0  0  0  0  0  0  0  0
   -1.5426   -2.2560    0.0000 C   0  0  0  0  0  0  0  0  0  0  0  0
   -1.8440   -3.0240    0.0000 N   0  0  0  0  0  0  0  0  0  0  0  0
   -1.3296   -3.6690    0.0000 C   0  0  0  0  0  0  0  0  0  0  0  0
   -1.6310   -4.4369    0.0000 C   0  0  0  0  0  0  0  0  0  0  0  0
   -2.4468   -4.5599    0.0000 O   0  0  0  0  0  0  0  0  0  0  0  0
   -2.9612   -3.9149    0.0000 C   0  0  0  0  0  0  0  0  0  0  0  0
   -2.6598   -3.1469    0.0000 C   0  0  0  0  0  0  0  0  0  0  0  0
   -0.4254   -1.3651    0.0000 N   0  0  0  0  0  0  0  0  0  0  0  0
    0.3904   -1.2421    0.0000 C   0  0  0  0  0  0  0  0  0  0  0  0
    0.6918   -0.4741    0.0000 C   0  0  0  0  0  0  0  0  0  0  0  0
    1.5076   -0.3512    0.0000 C   0  0  0  0  0  0  0  0  0  0  0  0
    1.6911    0.4531    0.0000 C   0  0  0  0  0  0  0  0  0  0  0  0
    2.4344    0.8111    0.0000 C   0  0  0  0  0  0  0  0  0  0  0  0
    3.1777    0.4531    0.0000 C   0  0  0  0  0  0  0  0  0  0  0  0
    3.3613   -0.3512    0.0000 C   0  0  0  0  0  0  0  0  0  0  0  0
    4.1771   -0.4741    0.0000 C   0  0  0  0  0  0  0  0  0  0  0  0
    4.4785   -1.2421    0.0000 C   0  0  0  0  0  0  0  0  0  0  0  0
    3.9641   -1.8871    0.0000 C   0  0  0  0  0  0  0  0  0  0  0  0
    3.1483   -1.7642    0.0000 C   0  0  0  0  0  0  0  0  0  0  0  0
    2.8469   -0.9962    0.0000 C   0  0  0  0  0  0  0  0  0  0  0  0
    2.0219   -0.9962    0.0000 C   0  0  0  0  0  0  0  0  0  0  0  0
    1.7205   -1.7642    0.0000 N   0  0  0  0  0  0  0  0  0  0  0  0
    0.9047   -1.8871    0.0000 N   0  0  0  0  0  0  0  0  0  0  0  0
  1  2  1  0  0  0  0
  2  3  1  0  0  0  0
  3  4  1  0  0  0  0
  4  5  1  0  0  0  0
  5  6  1  0  0  0  0
  6  7  1  0  0  0  0
  7  8  1  0  0  0  0
  3  8  1  0  0  0  0
  1  9  1  0  0  0  0
  9 10  1  0  0  0  0
 10 11  4  0  0  0  0
 11 12  4  0  0  0  0
 12 13  1  0  0  0  0
 13 14  1  0  0  0  0
 14 15  1  0  0  0  0
 15 16  1  0  0  0  0
 16 17  4  0  0  0  0
 17 18  4  0  0  0  0
 18 19  4  0  0  0  0
 19 20  4  0  0  0  0
 20 21  4  0  0  0  0
 16 21  4  0  0  0  0
 21 22  1  0  0  0  0
 12 22  4  0  0  0  0
 22 23  4  0  0  0  0
 23 24  4  0  0  0  0
 10 24  4  0  0  0  0
M  END

> <ChembankId>
3068973

> <SMILES>
C(CN1CCOCC1)Nc2cc3CCCc4ccccc4-c3nn2

> <InChI>
1/C19H24N4O/c1-2-7-17-15(4-1)5-3-6-16-14-18(21-22-19(16)17)20-8-9-23-10-12-24-13-11-23/h1-2,4,7,14H,3,5-6,8-13H2,(H,20,21)

$$$$
3068976
  Marvin  11101114192D          

 25 27  0  0  0  0            999 V2000
   -2.1434   -1.2375    0.0000 Cl  0  0  0  0  0  0  0  0  0  0  0  0
   -1.4289   -1.6500    0.0000 C   0  0  0  0  0  0  0  0  0  0  0  0
   -0.7145   -1.2375    0.0000 C   0  0  0  0  0  0  0  0  0  0  0  0
    0.0000   -1.6500    0.0000 C   0  0  0  0  0  0  0  0  0  0  0  0
    0.0000   -2.4750    0.0000 C   0  0  0  0  0  0  0  0  0  0  0  0
    0.7145   -2.8875    0.0000 C   0  0  0  0  0  0  0  0  0  0  0  0
    1.4289   -2.4750    0.0000 C   0  0  0  0  0  0  0  0  0  0  0  0
    2.1434   -2.8875    0.0000 C   0  0  0  0  0  0  0  0  0  0  0  0
    2.1434   -3.7125    0.0000 C   0  0  0  0  0  0  0  0  0  0  0  0
    1.4289   -4.1250    0.0000 N   0  0  0  0  0  0  0  0  0  0  0  0
    1.3427   -4.9455    0.0000 C   0  0  0  0  0  0  0  0  0  0  0  0
    0.5357   -5.1170    0.0000 C   0  0  0  0  0  0  0  0  0  0  0  0
    0.1232   -4.4025    0.0000 N   0  0  0  0  0  0  0  0  0  0  0  0
    0.6753   -3.7894    0.0000 C   0  0  0  0  0  0  0  0  0  0  0  0
    2.8579   -2.4750    0.0000 S   0  0  0  0  0  0  0  0  0  0  0  0
    3.5724   -2.8875    0.0000 C   0  0  0  0  0  0  0  0  0  0  0  0
    4.2868   -2.4750    0.0000 C   0  0  0  0  0  0  0  0  0  0  0  0
    4.2868   -1.6500    0.0000 Cl  0  0  0  0  0  0  0  0  0  0  0  0
    5.0013   -2.8875    0.0000 C   0  0  0  0  0  0  0  0  0  0  0  0
    5.0013   -3.7125    0.0000 C   0  0  0  0  0  0  0  0  0  0  0  0
    4.2868   -4.1250    0.0000 C   0  0  0  0  0  0  0  0  0  0  0  0
    3.5724   -3.7125    0.0000 C   0  0  0  0  0  0  0  0  0  0  0  0
    2.8579   -4.1250    0.0000 Cl  0  0  0  0  0  0  0  0  0  0  0  0
   -0.7145   -2.8875    0.0000 C   0  0  0  0  0  0  0  0  0  0  0  0
   -1.4289   -2.4750    0.0000 C   0  0  0  0  0  0  0  0  0  0  0  0
  1  2  1  0  0  0  0
  2  3  4  0  0  0  0
  3  4  4  0  0  0  0
  4  5  4  0  0  0  0
  5  6  1  0  0  0  0
  6  7  1  0  0  0  0
  7  8  1  0  0  0  0
  8  9  1  0  0  0  0
  9 10  1  0  0  0  0
 10 11  4  0  0  0  0
 11 12  4  0  0  0  0
 12 13  4  0  0  0  0
 13 14  4  0  0  0  0
 10 14  4  0  0  0  0
  8 15  1  0  0  0  0
 15 16  1  0  0  0  0
 16 17  4  0  0  0  0
 17 18  1  0  0  0  0
 17 19  4  0  0  0  0
 19 20  4  0  0  0  0
 20 21  4  0  0  0  0
 21 22  4  0  0  0  0
 16 22  4  0  0  0  0
 22 23  1  0  0  0  0
  5 24  4  0  0  0  0
 24 25  4  0  0  0  0
  2 25  4  0  0  0  0
M  END

> <ChembankId>
3068976

> <SMILES>
Clc1ccc(CCC(Cn2ccnc2)Sc3c(Cl)cccc3Cl)cc1

> <InChI>
1/C19H17Cl3N2S/c20-15-7-4-14(5-8-15)6-9-16(12-24-11-10-23-13-24)25-19-17(21)2-1-3-18(19)22/h1-5,7-8,10-11,13,16H,6,9,12H2

$$$$
3189308
  Marvin  11101114192D          

 21 24  0  0  1  0            999 V2000
    3.5330   -3.2587    0.0000 C   0  0  0  0  0  0  0  0  0  0  0  0
    3.8928   -2.5163    0.0000 C   0  0  2  0  0  0  0  0  0  0  0  0
    4.4247   -3.1470    0.0000 C   0  0  0  0  0  0  0  0  0  0  0  0
    5.2368   -3.0018    0.0000 C   0  0  0  0  0  0  0  0  0  0  0  0
    5.5171   -2.2259    0.0000 C   0  0  1  0  0  0  0  0  0  0  0  0
    4.9853   -1.5952    0.0000 C   0  0  1  0  0  0  0  0  0  0  0  0
    5.2655   -0.8192    0.0000 C   0  0  0  0  0  0  0  0  0  0  0  0
    6.0777   -0.6740    0.0000 C   0  0  0  0  0  0  0  0  0  0  0  0
    6.6095   -1.3047    0.0000 C   0  0  1  0  0  0  0  0  0  0  0  0
    7.4216   -1.1595    0.0000 C   0  0  0  0  0  0  0  0  0  0  0  0
    7.9534   -1.7902    0.0000 C   0  0  2  0  0  0  0  0  0  0  0  0
    8.7655   -1.6450    0.0000 O   0  0  0  0  0  0  0  0  0  0  0  0
    7.6731   -2.5662    0.0000 C   0  0  0  0  0  0  0  0  0  0  0  0
    6.8610   -2.7114    0.0000 C   0  0  0  0  0  0  0  0  0  0  0  0
    6.3292   -2.0807    0.0000 C   0  0  2  0  0  0  0  0  0  0  0  0
    6.0489   -2.8566    0.0000 C   0  0  0  0  0  0  0  0  0  0  0  0
    4.1731   -1.7404    0.0000 C   0  0  2  0  0  0  0  0  0  0  0  0
    3.5218   -1.2340    0.0000 C   0  0  0  0  0  0  0  0  0  0  0  0
    2.8390   -1.6970    0.0000 C   0  0  0  0  0  0  0  0  0  0  0  0
    3.0683   -2.4895    0.0000 C   0  0  0  0  0  0  0  0  0  0  0  0
    2.5619   -3.1408    0.0000 O   0  0  0  0  0  0  0  0  0  0  0  0
  2  1  1  1  0  0  0
  2  3  1  0  0  0  0
  3  4  1  0  0  0  0
  5  4  1  1  0  0  0
  5  6  1  0  0  0  0
  6  7  1  6  0  0  0
  7  8  1  0  0  0  0
  8  9  1  0  0  0  0
  9 10  1  1  0  0  0
 10 11  1  0  0  0  0
 11 12  1  6  0  0  0
 11 13  1  0  0  0  0
 13 14  1  0  0  0  0
 14 15  1  0  0  0  0
  9 15  1  0  0  0  0
  5 15  1  0  0  0  0
 15 16  1  1  0  0  0
  6 17  1  0  0  0  0
  2 17  1  0  0  0  0
 17 18  1  1  0  0  0
 18 19  1  0  0  0  0
 19 20  1  0  0  0  0
  2 20  1  0  0  0  0
 20 21  2  0  0  0  0
M  END

> <ChembankId>
3189308

> <SMILES>
C[C@@]12CC[C@H]3[C@@H](CC[C@H]4C[C@H](O)CC[C@@]43C)[C@@H]2CCC1=O

> <InChI>
1/C19H30O2/c1-18-9-7-13(20)11-12(18)3-4-14-15-5-6-17(21)19(15,2)10-8-16(14)18/h12-16,20H,3-11H2,1-2H3

$$$$
1960
  Marvin  11101114192D          

 33 37  0  0  1  0            999 V2000
    0.5233   -2.3607    0.0000 C   0  0  0  0  0  0  0  0  0  0  0  0
    1.1279   -2.9220    0.0000 C   0  0  0  0  0  0  0  0  0  0  0  0
    1.9163   -2.6790    0.0000 C   0  0  0  0  0  0  0  0  0  0  0  0
    0.9442   -3.7263    0.0000 C   0  0  2  0  0  0  0  0  0  0  0  0
    0.1855   -4.0503    0.0000 C   0  0  0  0  0  0  0  0  0  0  0  0
    0.2592   -4.8720    0.0000 C   0  0  0  0  0  0  0  0  0  0  0  0
    1.0635   -5.0558    0.0000 C   0  0  2  0  0  0  0  0  0  0  0  0
    1.4651   -5.7765    0.0000 C   0  0  0  0  0  0  0  0  0  0  0  0
    2.2900   -5.7890    0.0000 C   0  0  0  0  0  0  0  0  0  0  0  0
    2.7133   -5.0809    0.0000 C   0  0  2  0  0  0  0  0  0  0  0  0
    3.1149   -5.8016    0.0000 C   0  0  0  0  0  0  0  0  0  0  0  0
    2.3117   -4.3603    0.0000 C   0  0  2  0  0  0  0  0  0  0  0  0
    2.7350   -3.6521    0.0000 C   0  0  0  0  0  0  0  0  0  0  0  0
    3.5599   -3.6647    0.0000 C   0  0  0  0  0  0  0  0  0  0  0  0
    3.9615   -4.3853    0.0000 C   0  0  2  0  0  0  0  0  0  0  0  0
    4.7864   -4.3979    0.0000 C   0  0  1  0  0  0  0  0  0  0  0  0
    4.3848   -3.6772    0.0000 C   0  0  0  0  0  0  0  0  0  0  0  0
    5.2097   -3.6898    0.0000 C   0  0  0  0  0  0  0  0  0  0  0  0
    6.0346   -3.7023    0.0000 C   0  0  0  0  0  0  0  0  0  0  0  0
    6.4362   -4.4230    0.0000 C   0  0  2  0  0  0  0  0  0  0  0  0
    7.2611   -4.4355    0.0000 O   0  0  0  0  0  0  0  0  0  0  0  0
    6.0129   -5.1311    0.0000 C   0  0  0  0  0  0  0  0  0  0  0  0
    6.7838   -5.4250    0.0000 C   0  0  0  0  0  0  0  0  0  0  0  0
    5.8573   -5.9413    0.0000 C   0  0  0  0  0  0  0  0  0  0  0  0
    5.1880   -5.1186    0.0000 C   0  0  2  0  0  0  0  0  0  0  0  0
    4.7647   -5.8267    0.0000 C   0  0  0  0  0  0  0  0  0  0  0  0
    3.9398   -5.8141    0.0000 C   0  0  0  0  0  0  0  0  0  0  0  0
    3.5382   -5.0935    0.0000 C   0  0  1  0  0  0  0  0  0  0  0  0
    3.6119   -5.9152    0.0000 C   0  0  0  0  0  0  0  0  0  0  0  0
    1.4868   -4.3477    0.0000 C   0  0  1  0  0  0  0  0  0  0  0  0
    0.5685   -5.7158    0.0000 C   0  0  0  0  0  0  0  0  0  0  0  0
    0.8925   -6.4745    0.0000 O   0  0  0  0  0  0  0  0  0  0  0  0
   -0.2506   -5.6171    0.0000 O   0  0  0  0  0  0  0  0  0  0  0  0
  1  2  1  0  0  0  0
  2  3  2  0  0  0  0
  4  2  1  1  0  0  0
  4  5  1  0  0  0  0
  5  6  1  0  0  0  0
  6  7  1  0  0  0  0
  7  8  1  0  0  0  0
  8  9  1  0  0  0  0
  9 10  1  0  0  0  0
 10 11  1  1  0  0  0
 10 12  1  0  0  0  0
 12 13  1  1  0  0  0
 13 14  1  0  0  0  0
 15 14  1  6  0  0  0
 15 16  1  0  0  0  0
 16 17  1  6  0  0  0
 16 18  1  0  0  0  0
 18 19  1  0  0  0  0
 19 20  1  0  0  0  0
 20 21  1  6  0  0  0
 20 22  1  0  0  0  0
 22 23  1  0  0  0  0
 22 24  1  0  0  0  0
 25 22  1  6  0  0  0
 16 25  1  0  0  0  0
 25 26  1  0  0  0  0
 26 27  1  0  0  0  0
 27 28  1  0  0  0  0
 15 28  1  0  0  0  0
 10 28  1  0  0  0  0
 28 29  1  6  0  0  0
 12 30  1  0  0  0  0
  4 30  1  0  0  0  0
 30  7  1  6  0  0  0
  7 31  1  6  0  0  0
 31 32  2  0  0  0  0
 31 33  1  0  0  0  0
M  END

> <ChembankId>
1960

> <SMILES>
CC(=C)[C@@H]1CC[C@@]2(CC[C@]3(C)[C@H](CC[C@@H]4[C@@]5(C)CC[C@H](O)C(C)(C)[C@@H]5CC[C@]43C)[C@@H]12)C(=O)O

> <InChI>
1/C30H48O3/c1-18(2)19-10-15-30(25(32)33)17-16-28(6)20(24(19)30)8-9-22-27(5)13-12-23(31)26(3,4)21(27)11-14-29(22,28)7/h19-24,31H,1,8-17H2,2-7H3,(H,32,33)

$$$$
951
  Marvin  11101114192D          

 16 17  0  0  1  0            999 V2000
    4.8494    1.3537    0.0000 O   0  0  0  0  0  0  0  0  0  0  0  0
    5.5638    0.9412    0.0000 C   0  0  0  0  0  0  0  0  0  0  0  0
    5.5638    0.1162    0.0000 O   0  0  0  0  0  0  0  0  0  0  0  0
    6.2783    1.3537    0.0000 C   0  0  0  0  0  0  0  0  0  0  0  0
    6.9928    0.9412    0.0000 C   0  0  0  0  0  0  0  0  0  0  0  0
    7.7072    1.3537    0.0000 C   0  0  0  0  0  0  0  0  0  0  0  0
    8.4217    0.9412    0.0000 C   0  0  0  0  0  0  0  0  0  0  0  0
    9.1362    1.3537    0.0000 C   0  0  2  0  0  0  0  0  0  0  0  0
    9.2224    2.1742    0.0000 S   0  0  0  0  0  0  0  0  0  0  0  0
   10.0294    2.3457    0.0000 C   0  0  0  0  0  0  0  0  0  0  0  0
   10.4419    1.6313    0.0000 C   0  0  2  0  0  0  0  0  0  0  0  0
   11.1956    1.2957    0.0000 N   0  0  0  0  0  0  0  0  0  0  0  0
   11.1093    0.4752    0.0000 C   0  0  0  0  0  0  0  0  0  0  0  0
   11.7224   -0.0768    0.0000 O   0  0  0  0  0  0  0  0  0  0  0  0
   10.3024    0.3037    0.0000 N   0  0  0  0  0  0  0  0  0  0  0  0
    9.8899    1.0182    0.0000 C   0  0  2  0  0  0  0  0  0  0  0  0
  1  2  1  0  0  0  0
  2  3  2  0  0  0  0
  2  4  1  0  0  0  0
  4  5  1  0  0  0  0
  5  6  1  0  0  0  0
  6  7  1  0  0  0  0
  8  7  1  6  0  0  0
  8  9  1  0  0  0  0
  9 10  1  0  0  0  0
 10 11  1  0  0  0  0
 11 12  1  6  0  0  0
 12 13  1  0  0  0  0
 13 14  2  0  0  0  0
 13 15  1  0  0  0  0
 16 15  1  6  0  0  0
  8 16  1  0  0  0  0
 11 16  1  0  0  0  0
M  END

> <ChembankId>
951

> <SMILES>
OC(=O)CCCC[C@@H]1SC[C@@H]2NC(=O)N[C@H]12

> <InChI>
1/C10H16N2O3S/c13-8(14)4-2-1-3-7-9-6(5-16-7)11-10(15)12-9/h6-7,9H,1-5H2,(H,13,14)(H2,11,12,15)

$$$$
3189311
  Marvin  11101114192D          

 18 19  0  0  1  0            999 V2000
    4.8503    0.9760    0.0000 C   0  0  0  0  0  0  0  0  0  0  0  0
    4.1358    0.5635    0.0000 C   0  0  0  0  0  0  0  0  0  0  0  0
    4.1358   -0.2615    0.0000 O   0  0  0  0  0  0  0  0  0  0  0  0
    3.4214    0.9760    0.0000 O   0  0  0  0  0  0  0  0  0  0  0  0
    2.7069    0.5635    0.0000 C   0  0  0  0  0  0  0  0  0  0  0  0
    1.9924    0.9760    0.0000 C   0  0  0  0  0  0  0  0  0  0  0  0
    1.2780    0.5635    0.0000 C   0  0  0  0  0  0  0  0  0  0  0  0
    0.5635    0.9760    0.0000 N   0  0  0  0  0  0  0  0  0  0  0  0
    0.5635    1.8010    0.0000 C   0  0  2  0  0  0  0  0  0  0  0  0
    1.2780    2.2135    0.0000 S   0  0  0  0  0  0  0  0  0  0  0  0
    1.9924    1.8010    0.0000 C   0  0  0  0  0  0  0  0  0  0  0  0
   -0.2615    1.8010    0.0000 C   0  0  2  0  0  0  0  0  0  0  0  0
   -0.8449    2.3843    0.0000 N   0  0  0  0  0  0  0  0  0  0  0  0
   -0.2615    0.9760    0.0000 C   0  0  0  0  0  0  0  0  0  0  0  0
   -0.8449    0.3926    0.0000 O   0  0  0  0  0  0  0  0  0  0  0  0
    1.2780   -0.2615    0.0000 C   0  0  0  0  0  0  0  0  0  0  0  0
    0.5635   -0.6740    0.0000 O   0  0  0  0  0  0  0  0  0  0  0  0
    1.9924   -0.6740    0.0000 O   0  0  0  0  0  0  0  0  0  0  0  0
  1  2  1  0  0  0  0
  2  3  2  0  0  0  0
  2  4  1  0  0  0  0
  4  5  1  0  0  0  0
  5  6  1  0  0  0  0
  6  7  2  0  0  0  0
  7  8  1  0  0  0  0
  9  8  1  1  0  0  0
  9 10  1  0  0  0  0
 10 11  1  0  0  0  0
  6 11  1  0  0  0  0
  9 12  1  0  0  0  0
 12 13  1  1  0  0  0
 12 14  1  0  0  0  0
  8 14  1  0  0  0  0
 14 15  2  0  0  0  0
  7 16  1  0  0  0  0
 16 17  2  0  0  0  0
 16 18  1  0  0  0  0
M  END

> <ChembankId>
3189311

> <SMILES>
CC(=O)OCC1=C(N2[C@H](SC1)[C@H](N)C2=O)C(=O)O

> <InChI>
1/C10H12N2O5S/c1-4(13)17-2-5-3-18-9-6(11)8(14)12(9)7(5)10(15)16/h6,9H,2-3,11H2,1H3,(H,15,16)

$$$$
2117409
  Marvin  11101114192D          

 60 65  0  0  0  0            999 V2000
   -6.4302   -2.8875    0.0000 C   0  0  0  0  0  0  0  0  0  0  0  0
   -5.7158   -2.4750    0.0000 O   0  0  0  0  0  0  0  0  0  0  0  0
   -5.0013   -2.8875    0.0000 C   0  0  0  0  0  0  0  0  0  0  0  0
   -4.2868   -2.4750    0.0000 C   0  0  0  0  0  0  0  0  0  0  0  0
   -3.5724   -2.8875    0.0000 C   0  0  0  0  0  0  0  0  0  0  0  0
   -3.5724   -3.7125    0.0000 C   0  0  0  0  0  0  0  0  0  0  0  0
   -4.2868   -4.1250    0.0000 C   0  0  0  0  0  0  0  0  0  0  0  0
   -5.0013   -3.7125    0.0000 C   0  0  0  0  0  0  0  0  0  0  0  0
   -5.7158   -4.1250    0.0000 N   0  0  0  0  0  0  0  0  0  0  0  0
   -6.4302   -3.7125    0.0000 N   0  0  0  0  0  0  0  0  0  0  0  0
   -7.1447   -4.1250    0.0000 C   0  0  0  0  0  0  0  0  0  0  0  0
   -7.1447   -4.9500    0.0000 C   0  0  0  0  0  0  0  0  0  0  0  0
   -7.8592   -5.3625    0.0000 C   0  0  0  0  0  0  0  0  0  0  0  0
   -8.5737   -4.9500    0.0000 C   0  0  0  0  0  0  0  0  0  0  0  0
   -9.2881   -5.3625    0.0000 C   0  0  0  0  0  0  0  0  0  0  0  0
  -10.0026   -4.9500    0.0000 C   0  0  0  0  0  0  0  0  0  0  0  0
  -10.0026   -4.1250    0.0000 C   0  0  0  0  0  0  0  0  0  0  0  0
   -9.2881   -3.7125    0.0000 C   0  0  0  0  0  0  0  0  0  0  0  0
   -9.2881   -2.8875    0.0000 N   0  0  0  0  0  0  0  0  0  0  0  0
   -8.5737   -4.1250    0.0000 C   0  0  0  0  0  0  0  0  0  0  0  0
   -7.8592   -3.7125    0.0000 C   0  0  0  0  0  0  0  0  0  0  0  0
   -7.8592   -2.8875    0.0000 O   0  0  0  0  0  0  0  0  0  0  0  0
  -10.7171   -3.7125    0.0000 S   0  0  0  0  0  0  0  0  0  0  0  0
  -11.4315   -3.3000    0.0000 O   0  0  0  0  0  0  0  0  0  0  0  0
  -11.1296   -4.4270    0.0000 O   0  0  0  0  0  0  0  0  0  0  0  0
  -10.3046   -2.9980    0.0000 O   0  0  0  0  0  0  0  0  0  0  0  0
   -9.2881   -6.1875    0.0000 S   0  0  0  0  0  0  0  0  0  0  0  0
   -9.2881   -7.0125    0.0000 O   0  0  0  0  0  0  0  0  0  0  0  0
  -10.1131   -6.1875    0.0000 O   0  0  0  0  0  0  0  0  0  0  0  0
   -8.4631   -6.1875    0.0000 O   0  0  0  0  0  0  0  0  0  0  0  0
   -2.8579   -2.4750    0.0000 C   0  0  0  0  0  0  0  0  0  0  0  0
   -2.8579   -1.6500    0.0000 C   0  0  0  0  0  0  0  0  0  0  0  0
   -2.1434   -1.2375    0.0000 C   0  0  0  0  0  0  0  0  0  0  0  0
   -1.4289   -1.6500    0.0000 C   0  0  0  0  0  0  0  0  0  0  0  0
   -0.7145   -1.2375    0.0000 N   0  0  0  0  0  0  0  0  0  0  0  0
    0.0000   -1.6500    0.0000 N   0  0  0  0  0  0  0  0  0  0  0  0
    0.7145   -1.2375    0.0000 C   0  0  0  0  0  0  0  0  0  0  0  0
    0.7145   -0.4125    0.0000 C   0  0  0  0  0  0  0  0  0  0  0  0
    1.4289    0.0000    0.0000 C   0  0  0  0  0  0  0  0  0  0  0  0
    2.1434   -0.4125    0.0000 C   0  0  0  0  0  0  0  0  0  0  0  0
    2.8579    0.0000    0.0000 C   0  0  0  0  0  0  0  0  0  0  0  0
    3.5724   -0.4125    0.0000 C   0  0  0  0  0  0  0  0  0  0  0  0
    3.5724   -1.2375    0.0000 C   0  0  0  0  0  0  0  0  0  0  0  0
    2.8579   -1.6500    0.0000 C   0  0  0  0  0  0  0  0  0  0  0  0
    2.8579   -2.4750    0.0000 N   0  0  0  0  0  0  0  0  0  0  0  0
    2.1434   -1.2375    0.0000 C   0  0  0  0  0  0  0  0  0  0  0  0
    1.4289   -1.6500    0.0000 C   0  0  0  0  0  0  0  0  0  0  0  0
    1.4289   -2.4750    0.0000 O   0  0  0  0  0  0  0  0  0  0  0  0
    4.2868   -1.6500    0.0000 S   0  0  0  0  0  0  0  0  0  0  0  0
    5.0013   -2.0625    0.0000 O   0  0  0  0  0  0  0  0  0  0  0  0
    3.8743   -2.3645    0.0000 O   0  0  0  0  0  0  0  0  0  0  0  0
    4.6993   -0.9355    0.0000 O   0  0  0  0  0  0  0  0  0  0  0  0
    2.8579    0.8250    0.0000 S   0  0  0  0  0  0  0  0  0  0  0  0
    2.8579    1.6500    0.0000 O   0  0  0  0  0  0  0  0  0  0  0  0
    3.6829    0.8250    0.0000 O   0  0  0  0  0  0  0  0  0  0  0  0
    2.0329    0.8250    0.0000 O   0  0  0  0  0  0  0  0  0  0  0  0
   -1.4289   -2.4750    0.0000 C   0  0  0  0  0  0  0  0  0  0  0  0
   -0.7145   -2.8875    0.0000 O   0  0  0  0  0  0  0  0  0  0  0  0
   -0.7145   -3.7125    0.0000 C   0  0  0  0  0  0  0  0  0  0  0  0
   -2.1434   -2.8875    0.0000 C   0  0  0  0  0  0  0  0  0  0  0  0
  1  2  1  0  0  0  0
  2  3  1  0  0  0  0
  3  4  4  0  0  0  0
  4  5  4  0  0  0  0
  5  6  4  0  0  0  0
  6  7  4  0  0  0  0
  7  8  4  0  0  0  0
  3  8  4  0  0  0  0
  9  8  1  4  0  0  0
  9 10  2  0  0  0  0
 10 11  1  0  0  0  0
 11 12  4  0  0  0  0
 12 13  4  0  0  0  0
 13 14  4  0  0  0  0
 14 15  4  0  0  0  0
 15 16  4  0  0  0  0
 16 17  4  0  0  0  0
 17 18  4  0  0  0  0
 18 19  1  0  0  0  0
 18 20  4  0  0  0  0
 14 20  4  0  0  0  0
 20 21  4  0  0  0  0
 11 21  4  0  0  0  0
 21 22  1  0  0  0  0
 17 23  1  0  0  0  0
 23 24  2  0  0  0  0
 23 25  2  0  0  0  0
 23 26  1  0  0  0  0
 15 27  1  0  0  0  0
 27 28  2  0  0  0  0
 27 29  2  0  0  0  0
 27 30  1  0  0  0  0
  5 31  1  0  0  0  0
 31 32  4  0  0  0  0
 32 33  4  0  0  0  0
 33 34  4  0  0  0  0
 35 34  1  4  0  0  0
 35 36  2  0  0  0  0
 36 37  1  0  0  0  0
 37 38  4  0  0  0  0
 38 39  4  0  0  0  0
 39 40  4  0  0  0  0
 40 41  4  0  0  0  0
 41 42  4  0  0  0  0
 42 43  4  0  0  0  0
 43 44  4  0  0  0  0
 44 45  1  0  0  0  0
 44 46  4  0  0  0  0
 40 46  4  0  0  0  0
 46 47  4  0  0  0  0
 37 47  4  0  0  0  0
 47 48  1  0  0  0  0
 43 49  1  0  0  0  0
 49 50  2  0  0  0  0
 49 51  2  0  0  0  0
 49 52  1  0  0  0  0
 41 53  1  0  0  0  0
 53 54  2  0  0  0  0
 53 55  2  0  0  0  0
 53 56  1  0  0  0  0
 34 57  4  0  0  0  0
 57 58  1  0  0  0  0
 58 59  1  0  0  0  0
 57 60  4  0  0  0  0
 31 60  4  0  0  0  0
M  END

> <ChembankId>
2117409

> <SMILES>
COc1cc(ccc1N=Nc2ccc3c(cc(c(N)c3c2O)S(=O)(=O)O)S(=O)(=O)O)c4ccc(N=Nc5ccc6c(cc(c(N)c6c5O)S(=O)(=O)O)S(=O)(=O)O)c(OC)c4

> <InChI>
1/C34H28N6O16S4/c1-55-23-11-15(3-7-19(23)37-39-21-9-5-17-25(57(43,44)45)13-27(59(49,50)51)31(35)29(17)33(21)41)16-4-8-20(24(12-16)56-2)38-40-22-10-6-18-26(58(46,47)48)14-28(60(52,53)54)32(36)30(18)34(22)42/h3-14,41-42H,35-36H2,1-2H3,(H,43,44,45)(H,46,47,48)(H,49,50,51)(H,52,53,54)

$$$$
907205
  Marvin  11101114192D          

 22 23  0  0  0  0            999 V2000
   -4.2868    3.3000    0.0000 C   0  0  0  0  0  0  0  0  0  0  0  0
   -3.5724    3.7125    0.0000 O   0  0  0  0  0  0  0  0  0  0  0  0
   -2.8579    3.3000    0.0000 C   0  0  0  0  0  0  0  0  0  0  0  0
   -2.1434    3.7125    0.0000 C   0  0  0  0  0  0  0  0  0  0  0  0
   -1.4289    3.3000    0.0000 C   0  0  0  0  0  0  0  0  0  0  0  0
   -0.7145    3.7125    0.0000 O   0  0  0  0  0  0  0  0  0  0  0  0
    0.0000    3.3000    0.0000 C   0  0  0  0  0  0  0  0  0  0  0  0
   -1.4289    2.4750    0.0000 C   0  0  0  0  0  0  0  0  0  0  0  0
   -0.7145    2.0625    0.0000 C   0  0  0  0  0  0  0  0  0  0  0  0
   -0.7145    1.2375    0.0000 O   0  0  0  0  0  0  0  0  0  0  0  0
    0.0000    2.4750    0.0000 C   0  0  0  0  0  0  0  0  0  0  0  0
    0.7145    2.0625    0.0000 C   0  0  0  0  0  0  0  0  0  0  0  0
    1.4289    2.4750    0.0000 C   0  0  0  0  0  0  0  0  0  0  0  0
    2.1434    2.0625    0.0000 N   0  0  0  0  0  0  0  0  0  0  0  0
    2.8971    2.3981    0.0000 C   0  0  0  0  0  0  0  0  0  0  0  0
    3.4491    1.7850    0.0000 C   0  0  0  0  0  0  0  0  0  0  0  0
    3.0366    1.0705    0.0000 C   0  0  0  0  0  0  0  0  0  0  0  0
    2.2296    1.2420    0.0000 C   0  0  0  0  0  0  0  0  0  0  0  0
   -2.1434    2.0625    0.0000 C   0  0  0  0  0  0  0  0  0  0  0  0
   -2.1434    1.2375    0.0000 O   0  0  0  0  0  0  0  0  0  0  0  0
   -2.8579    0.8250    0.0000 C   0  0  0  0  0  0  0  0  0  0  0  0
   -2.8579    2.4750    0.0000 C   0  0  0  0  0  0  0  0  0  0  0  0
  1  2  1  0  0  0  0
  2  3  1  0  0  0  0
  3  4  4  0  0  0  0
  4  5  4  0  0  0  0
  5  6  1  0  0  0  0
  6  7  1  0  0  0  0
  5  8  4  0  0  0  0
  8  9  1  0  0  0  0
  9 10  2  0  0  0  0
  9 11  1  0  0  0  0
 11 12  1  0  0  0  0
 12 13  1  0  0  0  0
 13 14  1  0  0  0  0
 14 15  1  0  0  0  0
 15 16  1  0  0  0  0
 16 17  1  0  0  0  0
 17 18  1  0  0  0  0
 14 18  1  0  0  0  0
  8 19  4  0  0  0  0
 19 20  1  0  0  0  0
 20 21  1  0  0  0  0
 19 22  4  0  0  0  0
  3 22  4  0  0  0  0
M  END

> <ChembankId>
907205

> <SMILES>
COc1cc(OC)c(C(=O)CCCN2CCCC2)c(OC)c1

> <InChI>
1/C17H25NO4/c1-20-13-11-15(21-2)17(16(12-13)22-3)14(19)7-6-10-18-8-4-5-9-18/h11-12H,4-10H2,1-3H3

$$$$
3189312
  Marvin  11101114192D          

 28 30  0  0  1  0            999 V2000
    4.8525   -0.8511    0.0000 C   0  0  0  0  0  0  0  0  0  0  0  0
    5.5670   -1.2636    0.0000 C   0  0  0  0  0  0  0  0  0  0  0  0
    5.5670   -2.0886    0.0000 C   0  0  0  0  0  0  0  0  0  0  0  0
    6.2815   -0.8511    0.0000 C   0  0  0  0  0  0  0  0  0  0  0  0
    6.9960   -1.2636    0.0000 C   0  0  0  0  0  0  0  0  0  0  0  0
    7.7104   -0.8511    0.0000 C   0  0  0  0  0  0  0  0  0  0  0  0
    8.4249   -1.2636    0.0000 C   0  0  1  0  0  0  0  0  0  0  0  0
    8.4249   -2.0886    0.0000 C   0  0  0  0  0  0  0  0  0  0  0  0
    9.1394   -0.8511    0.0000 C   0  0  1  0  0  0  0  0  0  0  0  0
    9.2256   -0.0307    0.0000 C   0  0  0  0  0  0  0  0  0  0  0  0
   10.0326    0.1409    0.0000 C   0  0  0  0  0  0  0  0  0  0  0  0
   10.4451   -0.5736    0.0000 C   0  0  1  0  0  0  0  0  0  0  0  0
   11.2521   -0.7451    0.0000 C   0  0  0  0  0  0  0  0  0  0  0  0
   11.8041   -0.1320    0.0000 C   0  0  0  0  0  0  0  0  0  0  0  0
   12.6111   -0.3036    0.0000 C   0  0  0  0  0  0  0  0  0  0  0  0
   13.1631    0.3095    0.0000 C   0  0  0  0  0  0  0  0  0  0  0  0
   13.9701    0.1380    0.0000 C   0  0  0  0  0  0  0  0  0  0  0  0
   14.5221    0.7511    0.0000 C   0  0  2  0  0  0  0  0  0  0  0  0
   15.3291    0.5796    0.0000 O   0  0  0  0  0  0  0  0  0  0  0  0
   14.2672    1.5357    0.0000 C   0  0  0  0  0  0  0  0  0  0  0  0
   13.4602    1.7072    0.0000 C   0  0  0  0  0  0  0  0  0  0  0  0
   12.9081    1.0942    0.0000 C   0  0  0  0  0  0  0  0  0  0  0  0
   12.1012    1.2657    0.0000 C   0  0  0  0  0  0  0  0  0  0  0  0
   11.5070   -1.5298    0.0000 C   0  0  0  0  0  0  0  0  0  0  0  0
   10.9550   -2.1428    0.0000 C   0  0  0  0  0  0  0  0  0  0  0  0
   10.1480   -1.9713    0.0000 C   0  0  0  0  0  0  0  0  0  0  0  0
    9.8930   -1.1867    0.0000 C   0  0  2  0  0  0  0  0  0  0  0  0
    9.2800   -1.7387    0.0000 C   0  0  0  0  0  0  0  0  0  0  0  0
  1  2  1  0  0  0  0
  2  3  1  0  0  0  0
  2  4  1  0  0  0  0
  4  5  1  0  0  0  0
  5  6  1  0  0  0  0
  6  7  1  0  0  0  0
  7  8  1  6  0  0  0
  9  7  1  1  0  0  0
  9 10  1  0  0  0  0
 10 11  1  0  0  0  0
 12 11  1  1  0  0  0
 12 13  1  0  0  0  0
 13 14  2  0  0  0  0
 14 15  1  0  0  0  0
 15 16  2  0  0  0  0
 16 17  1  0  0  0  0
 17 18  1  0  0  0  0
 18 19  1  1  0  0  0
 18 20  1  0  0  0  0
 20 21  1  0  0  0  0
 21 22  1  0  0  0  0
 16 22  1  0  0  0  0
 22 23  2  0  0  0  0
 13 24  1  0  0  0  0
 24 25  1  0  0  0  0
 25 26  1  0  0  0  0
 26 27  1  0  0  0  0
  9 27  1  0  0  0  0
 12 27  1  0  0  0  0
 27 28  1  1  0  0  0
M  END

> <ChembankId>
3189312

> <SMILES>
CC(C)CCC[C@@H](C)[C@H]1CC[C@H]2/C(=C/C=C\3/C[C@H](O)CCC3=C)/CCC[C@]12C

> <InChI>
1/C27H44O/c1-19(2)8-6-9-21(4)25-15-16-26-22(10-7-17-27(25,26)5)12-13-23-18-24(28)14-11-20(23)3/h12-13,19,21,24-26,28H,3,6-11,14-18H2,1-2,4-5H3/b22-12+,23-13-/t21-,24-,25-,26+,27-/m1/s1

$$$$
3189313
  Marvin  11101114192D          

 93100  0  0  1  0            999 V2000
    2.7205    1.6077    0.0000 C   0  0  0  0  0  0  0  0  0  0  0  0
    2.6026    0.7911    0.0000 C   0  0  2  0  0  0  0  0  0  0  0  0
    1.8366    0.4849    0.0000 C   0  0  0  0  0  0  0  0  0  0  0  0
    1.1883    0.9953    0.0000 N   0  0  0  0  0  0  0  0  0  0  0  0
    0.4223    0.6891    0.0000 C   0  0  0  0  0  0  0  0  0  0  0  0
    0.3044   -0.1275    0.0000 O   0  0  0  0  0  0  0  0  0  0  0  0
   -0.2259    1.1994    0.0000 C   0  0  0  0  0  0  0  0  0  0  0  0
   -0.9920    0.8932    0.0000 C   0  0  0  0  0  0  0  0  0  0  0  0
   -1.6402    1.4035    0.0000 C   0  0  2  0  0  0  0  0  0  0  0  0
   -1.0649    1.9949    0.0000 C   0  0  0  0  0  0  0  0  0  0  0  0
   -2.1682    2.0375    0.0000 C   0  0  1  0  0  0  0  0  0  0  0  0
   -1.9656    2.8372    0.0000 C   0  0  0  0  0  0  0  0  0  0  0  0
   -1.1717    3.0617    0.0000 C   0  0  0  0  0  0  0  0  0  0  0  0
   -0.9692    3.8614    0.0000 O   0  0  0  0  0  0  0  0  0  0  0  0
   -0.5804    2.4864    0.0000 N   0  0  0  0  0  0  0  0  0  0  0  0
   -2.9342    1.7313    0.0000 C   0  0  1  0  0  0  0  0  0  0  0  0
   -2.8798    0.9081    0.0000 N   0  0  0  0  0  0  0  0  0  0  0  0
   -2.0800    0.7055    0.0000 C   0  0  0  0  0  0  0  0  0  0  0  0
   -1.8469   -0.3321    0.0000 C   0  0  0  0  0  0  0  0  0  0  0  0
   -2.1320   -1.1063    0.0000 C   0  0  0  0  0  0  0  0  0  0  0  0
   -2.9564   -1.0744    0.0000 N   0  0  0  0  0  0  0  0  0  0  0  0
   -3.2414   -1.8486    0.0000 C   0  0  0  0  0  0  0  0  0  0  0  0
   -4.2977   -1.9720    0.0000 C   0  0  0  0  0  0  0  0  0  0  0  0
   -5.0379   -1.6075    0.0000 C   0  0  0  0  0  0  0  0  0  0  0  0
   -4.9200   -0.7910    0.0000 N   0  0  0  0  0  0  0  0  0  0  0  0
   -5.6602   -0.4266    0.0000 C   0  0  0  0  0  0  0  0  0  0  0  0
   -5.6724    0.6368    0.0000 C   0  0  0  0  0  0  0  0  0  0  0  0
   -5.2326    1.3348    0.0000 C   0  0  0  0  0  0  0  0  0  0  0  0
   -5.2871    2.1580    0.0000 C   0  0  1  0  0  0  0  0  0  0  0  0
   -5.9851    2.5978    0.0000 C   0  0  0  0  0  0  0  0  0  0  0  0
   -6.7150    2.2132    0.0000 C   0  0  0  0  0  0  0  0  0  0  0  0
   -7.4130    2.6530    0.0000 C   0  0  0  0  0  0  0  0  0  0  0  0
   -7.3812    3.4774    0.0000 O   0  0  0  0  0  0  0  0  0  0  0  0
   -8.1429    2.2684    0.0000 N   0  0  0  0  0  0  0  0  0  0  0  0
   -4.5211    2.4642    0.0000 C   0  0  2  0  0  0  0  0  0  0  0  0
   -3.8354    2.9230    0.0000 C   0  0  0  0  0  0  0  0  0  0  0  0
   -4.9057    3.1941    0.0000 C   0  0  0  0  0  0  0  0  0  0  0  0
   -4.4659    3.8921    0.0000 C   0  0  0  0  0  0  0  0  0  0  0  0
   -4.8505    4.6220    0.0000 O   0  0  0  0  0  0  0  0  0  0  0  0
   -3.6415    3.8603    0.0000 N   0  0  0  0  0  0  0  0  0  0  0  0
   -3.9931    1.8303    0.0000 C   0  0  2  0  0  0  0  0  0  0  0  0
   -3.6086    2.5602    0.0000 C   0  0  0  0  0  0  0  0  0  0  0  0
   -4.4329    1.1323    0.0000 N   0  0  0  0  0  0  0  0  0  0  0  0
   -4.1267    0.3662    0.0000 Co  0  3  0  0  0  0  0  0  0  0  0  0
   -3.3102    0.2483    0.0000 C   0  0  0  0  0  0  0  0  0  0  0  0
   -2.4936    0.1305    0.0000 N   0  0  0  0  0  0  0  0  0  0  0  0
   -6.4663    0.8611    0.0000 C   0  0  0  0  0  0  0  0  0  0  0  0
   -6.2355   -1.0179    0.0000 C   0  0  1  0  0  0  0  0  0  0  0  0
   -6.7634   -0.3840    0.0000 C   0  0  0  0  0  0  0  0  0  0  0  0
   -6.9212   -1.4767    0.0000 C   0  0  0  0  0  0  0  0  0  0  0  0
   -7.6613   -1.1123    0.0000 C   0  0  0  0  0  0  0  0  0  0  0  0
   -8.3470   -1.5711    0.0000 O   0  0  0  0  0  0  0  0  0  0  0  0
   -7.7158   -0.2891    0.0000 N   0  0  0  0  0  0  0  0  0  0  0  0
   -5.8509   -1.7478    0.0000 C   0  0  2  0  0  0  0  0  0  0  0  0
   -6.2153   -2.4879    0.0000 C   0  0  0  0  0  0  0  0  0  0  0  0
   -5.7565   -3.1736    0.0000 C   0  0  0  0  0  0  0  0  0  0  0  0
   -4.9333   -3.1191    0.0000 C   0  0  0  0  0  0  0  0  0  0  0  0
   -4.4745   -3.8048    0.0000 O   0  0  0  0  0  0  0  0  0  0  0  0
   -4.5689   -2.3790    0.0000 N   0  0  0  0  0  0  0  0  0  0  0  0
   -2.5932   -2.3590    0.0000 C   0  0  0  0  0  0  0  0  0  0  0  0
   -2.0653   -2.9929    0.0000 C   0  0  0  0  0  0  0  0  0  0  0  0
   -3.1685   -2.9503    0.0000 C   0  0  0  0  0  0  0  0  0  0  0  0
   -1.9075   -1.9002    0.0000 C   0  0  2  0  0  0  0  0  0  0  0  0
   -1.1333   -2.1852    0.0000 C   0  0  0  0  0  0  0  0  0  0  0  0
   -0.9931   -2.9982    0.0000 C   0  0  0  0  0  0  0  0  0  0  0  0
   -0.2189   -3.2833    0.0000 C   0  0  0  0  0  0  0  0  0  0  0  0
    0.4150   -2.7553    0.0000 O   0  0  0  0  0  0  0  0  0  0  0  0
   -0.0787   -4.0963    0.0000 N   0  0  0  0  0  0  0  0  0  0  0  0
   -1.0237   -0.3864    0.0000 C   0  0  0  0  0  0  0  0  0  0  0  0
    3.2508    0.2808    0.0000 O   0  0  0  0  0  0  0  0  0  0  0  0
    4.0169    0.5870    0.0000 P   0  0  0  0  0  0  0  0  0  0  0  0
    4.3231   -0.1791    0.0000 O   0  0  0  0  0  0  0  0  0  0  0  0
    3.7107    1.3531    0.0000 O   0  0  0  0  0  0  0  0  0  0  0  0
    4.7830    0.8932    0.0000 O   0  0  0  0  0  0  0  0  0  0  0  0
    5.4312    0.3829    0.0000 C   0  0  1  0  0  0  0  0  0  0  0  0
    6.2251    0.6073    0.0000 C   0  0  1  0  0  0  0  0  0  0  0  0
    6.5101    1.3815    0.0000 O   0  0  0  0  0  0  0  0  0  0  0  0
    6.6839   -0.0783    0.0000 C   0  0  2  0  0  0  0  0  0  0  0  0
    6.1735   -0.7266    0.0000 O   0  0  0  0  0  0  0  0  0  0  0  0
    5.3993   -0.4415    0.0000 C   0  0  2  0  0  0  0  0  0  0  0  0
    4.7137   -0.9003    0.0000 C   0  0  0  0  0  0  0  0  0  0  0  0
    3.9735   -0.5359    0.0000 O   0  0  0  0  0  0  0  0  0  0  0  0
    7.5083   -0.1102    0.0000 N   0  0  0  0  0  0  0  0  0  0  0  0
    8.0186    0.5380    0.0000 C   0  0  0  0  0  0  0  0  0  0  0  0
    8.7928    0.2530    0.0000 N   0  0  0  0  0  0  0  0  0  0  0  0
    8.7609   -0.5714    0.0000 C   0  0  0  0  0  0  0  0  0  0  0  0
    9.3522   -1.1467    0.0000 C   0  0  0  0  0  0  0  0  0  0  0  0
    9.1497   -1.9465    0.0000 C   0  0  0  0  0  0  0  0  0  0  0  0
    9.7410   -2.5218    0.0000 C   0  0  0  0  0  0  0  0  0  0  0  0
    8.3558   -2.1709    0.0000 C   0  0  0  0  0  0  0  0  0  0  0  0
    8.1532   -2.9707    0.0000 C   0  0  0  0  0  0  0  0  0  0  0  0
    7.7645   -1.5956    0.0000 C   0  0  0  0  0  0  0  0  0  0  0  0
    7.9670   -0.7959    0.0000 C   0  0  0  0  0  0  0  0  0  0  0  0
  2  1  1  1  0  0  0
  2  3  1  0  0  0  0
  3  4  1  0  0  0  0
  4  5  1  0  0  0  0
  5  6  2  0  0  0  0
  5  7  1  0  0  0  0
  7  8  1  0  0  0  0
  9  8  1  1  0  0  0
  9 10  1  6  0  0  0
  9 11  1  0  0  0  0
 11 12  1  6  0  0  0
 12 13  1  0  0  0  0
 13 14  2  0  0  0  0
 13 15  1  0  0  0  0
 11 16  1  0  0  0  0
 16 17  1  1  0  0  0
 17 18  2  0  0  0  0
  9 18  1  0  0  0  0
 18 19  1  0  0  0  0
 19 20  2  0  0  0  0
 20 21  1  0  0  0  0
 21 22  2  0  0  0  0
 22 23  1  0  0  0  0
 23 24  2  0  0  0  0
 24 25  1  0  0  0  0
 25 26  2  0  0  0  0
 26 27  1  0  0  0  0
 27 28  2  0  0  0  0
 28 29  1  0  0  0  0
 29 30  1  1  0  0  0
 30 31  1  0  0  0  0
 31 32  1  0  0  0  0
 32 33  2  0  0  0  0
 32 34  1  0  0  0  0
 29 35  1  0  0  0  0
 35 36  1  1  0  0  0
 35 37  1  6  0  0  0
 37 38  1  0  0  0  0
 38 39  2  0  0  0  0
 38 40  1  0  0  0  0
 35 41  1  0  0  0  0
 16 41  1  0  0  0  0
 41 42  1  1  0  0  0
 41 43  1  0  0  0  0
 28 43  1  0  0  0  0
 43 44  1  0  0  0  0
 44 45  1  0  0  0  0
 45 46  3  0  0  0  0
 27 47  1  0  0  0  0
 26 48  1  0  0  0  0
 48 49  1  1  0  0  0
 48 50  1  6  0  0  0
 50 51  1  0  0  0  0
 51 52  2  0  0  0  0
 51 53  1  0  0  0  0
 48 54  1  0  0  0  0
 24 54  1  0  0  0  0
 54 55  1  1  0  0  0
 55 56  1  0  0  0  0
 56 57  1  0  0  0  0
 57 58  2  0  0  0  0
 57 59  1  0  0  0  0
 22 60  1  0  0  0  0
 60 61  1  0  0  0  0
 60 62  1  0  0  0  0
 60 63  1  0  0  0  0
 20 63  1  0  0  0  0
 63 64  1  1  0  0  0
 64 65  1  0  0  0  0
 65 66  1  0  0  0  0
 66 67  2  0  0  0  0
 66 68  1  0  0  0  0
 19 69  1  0  0  0  0
  2 70  1  0  0  0  0
 70 71  1  0  0  0  0
 71 72  2  0  0  0  0
 71 73  1  0  0  0  0
 71 74  1  0  0  0  0
 75 74  1  1  0  0  0
 75 76  1  0  0  0  0
 76 77  1  1  0  0  0
 76 78  1  0  0  0  0
 78 79  1  0  0  0  0
 79 80  1  0  0  0  0
 75 80  1  0  0  0  0
 80 81  1  6  0  0  0
 81 82  1  0  0  0  0
 78 83  1  1  0  0  0
 83 84  4  0  0  0  0
 84 85  4  0  0  0  0
 85 86  4  0  0  0  0
 86 87  4  0  0  0  0
 87 88  4  0  0  0  0
 88 89  1  0  0  0  0
 88 90  4  0  0  0  0
 90 91  1  0  0  0  0
 90 92  4  0  0  0  0
 92 93  4  0  0  0  0
 83 93  4  0  0  0  0
 86 93  4  0  0  0  0
M  CHG  1  44   1
M  END

> <ChembankId>
3189313

> <SMILES>
C[C@H](CNC(=O)CC[C@]1(C)[C@@H](CC(=O)N)[C@H]2N=C1/C(=C/3\N=C(/C=C/4\N=C(/C(=C\5/[C@@H](CCC(=O)N)[C@](C)(CC(=O)N)[C@@]2(C)N5[Co+]C#N)/C)\[C@@](C)(CC(=O)N)[C@@H]4CCC(=O)N)\C(C)(C)[C@@H]3CCC(=O)N)/C)OP(=O)(O)O[C@H]6[C@@H](O)[C@H](O[C@@H]6CO)n7cnc8cc(C)c(C)cc78

> <InChI>
1/C62H90N13O14P.CN.Co/c1-29-20-39-40(21-30(29)2)75(28-70-39)57-52(84)53(41(27-76)87-57)89-90(85,86)88-31(3)26-69-49(83)18-19-59(8)37(22-46(66)80)56-62(11)61(10,25-48(68)82)36(14-17-45(65)79)51(74-62)33(5)55-60(9,24-47(67)81)34(12-15-43(63)77)38(71-55)23-42-58(6,7)35(13-16-44(64)78)50(72-42)32(4)54(59)73-56;1-2;/h20-21,23,28,31,34-37,41,52-53,56-57,76,84H,12-19,22,24-27H2,1-11H3,(H15,63,64,65,66,67,68,69,71,72,73,74,77,78,79,80,81,82,83,85,86);;/q;;+2/p-1

$$$$
3189314
  Marvin  11101114192D          

 27 31  0  0  1  0            999 V2000
    3.5330   -3.2587    0.0000 C   0  0  0  0  0  0  0  0  0  0  0  0
    3.8928   -2.5163    0.0000 C   0  0  2  0  0  0  0  0  0  0  0  0
    4.4247   -3.1470    0.0000 C   0  0  0  0  0  0  0  0  0  0  0  0
    5.2368   -3.0018    0.0000 C   0  0  0  0  0  0  0  0  0  0  0  0
    5.5171   -2.2259    0.0000 C   0  0  1  0  0  0  0  0  0  0  0  0
    4.9853   -1.5952    0.0000 C   0  0  1  0  0  0  0  0  0  0  0  0
    5.2655   -0.8192    0.0000 C   0  0  0  0  0  0  0  0  0  0  0  0
    6.0777   -0.6740    0.0000 C   0  0  0  0  0  0  0  0  0  0  0  0
    6.6095   -1.3047    0.0000 C   0  0  2  0  0  0  0  0  0  0  0  0
    7.4216   -1.1595    0.0000 C   0  0  0  0  0  0  0  0  0  0  0  0
    7.9534   -1.7902    0.0000 C   0  0  1  0  0  0  0  0  0  0  0  0
    8.7655   -1.6450    0.0000 O   0  0  0  0  0  0  0  0  0  0  0  0
    7.6731   -2.5662    0.0000 C   0  0  0  0  0  0  0  0  0  0  0  0
    6.8610   -2.7114    0.0000 C   0  0  0  0  0  0  0  0  0  0  0  0
    6.3292   -2.0807    0.0000 C   0  0  2  0  0  0  0  0  0  0  0  0
    6.0489   -2.8566    0.0000 C   0  0  0  0  0  0  0  0  0  0  0  0
    4.1731   -1.7404    0.0000 C   0  0  2  0  0  0  0  0  0  0  0  0
    4.3708   -0.9394    0.0000 O   0  0  0  0  0  0  0  0  0  0  0  0
    3.5218   -1.2340    0.0000 C   0  0  0  0  0  0  0  0  0  0  0  0
    2.8390   -1.6970    0.0000 C   0  0  0  0  0  0  0  0  0  0  0  0
    3.0683   -2.4895    0.0000 C   0  0  2  0  0  0  0  0  0  0  0  0
    2.5619   -3.1408    0.0000 C   0  0  0  0  0  0  0  0  0  0  0  0
    2.7912   -3.9333    0.0000 C   0  0  0  0  0  0  0  0  0  0  0  0
    2.1084   -4.3963    0.0000 C   0  0  0  0  0  0  0  0  0  0  0  0
    2.0816   -5.2209    0.0000 O   0  0  0  0  0  0  0  0  0  0  0  0
    1.4570   -3.8899    0.0000 O   0  0  0  0  0  0  0  0  0  0  0  0
    1.7373   -3.1140    0.0000 C   0  0  0  0  0  0  0  0  0  0  0  0
  2  1  1  1  0  0  0
  2  3  1  0  0  0  0
  3  4  1  0  0  0  0
  5  4  1  1  0  0  0
  5  6  1  0  0  0  0
  6  7  1  6  0  0  0
  7  8  1  0  0  0  0
  8  9  1  0  0  0  0
  9 10  1  6  0  0  0
 10 11  1  0  0  0  0
 11 12  1  1  0  0  0
 11 13  1  0  0  0  0
 13 14  1  0  0  0  0
 14 15  1  0  0  0  0
  9 15  1  0  0  0  0
  5 15  1  0  0  0  0
 15 16  1  1  0  0  0
  6 17  1  0  0  0  0
  2 17  1  0  0  0  0
 17 18  1  1  0  0  0
 17 19  1  0  0  0  0
 19 20  1  0  0  0  0
 20 21  1  0  0  0  0
  2 21  1  0  0  0  0
 21 22  1  1  0  0  0
 22 23  2  0  0  0  0
 23 24  1  0  0  0  0
 24 25  2  0  0  0  0
 24 26  1  0  0  0  0
 26 27  1  0  0  0  0
 22 27  1  0  0  0  0
M  END

> <ChembankId>
3189314

> <SMILES>
C[C@@]12CC[C@H]3[C@@H](CC[C@@H]4C[C@@H](O)CC[C@@]43C)[C@@]2(O)CC[C@@H]1C5=CC(=O)OC5

> <InChI>
1/C23H34O4/c1-21-8-5-16(24)12-15(21)3-4-19-18(21)6-9-22(2)17(7-10-23(19,22)26)14-11-20(25)27-13-14/h11,15-19,24,26H,3-10,12-13H2,1-2H3

$$$$
1001924
  Marvin  11101114192D          

 21 24  0  0  1  0            999 V2000
    3.5330   -3.2587    0.0000 C   0  0  0  0  0  0  0  0  0  0  0  0
    3.8928   -2.5163    0.0000 C   0  0  2  0  0  0  0  0  0  0  0  0
    4.4247   -3.1470    0.0000 C   0  0  0  0  0  0  0  0  0  0  0  0
    5.2368   -3.0018    0.0000 C   0  0  0  0  0  0  0  0  0  0  0  0
    5.5171   -2.2259    0.0000 C   0  0  1  0  0  0  0  0  0  0  0  0
    4.9853   -1.5952    0.0000 C   0  0  1  0  0  0  0  0  0  0  0  0
    5.2655   -0.8192    0.0000 C   0  0  0  0  0  0  0  0  0  0  0  0
    6.0777   -0.6740    0.0000 C   0  0  0  0  0  0  0  0  0  0  0  0
    6.6095   -1.3047    0.0000 C   0  0  1  0  0  0  0  0  0  0  0  0
    7.4216   -1.1595    0.0000 C   0  0  0  0  0  0  0  0  0  0  0  0
    7.9534   -1.7902    0.0000 C   0  0  1  0  0  0  0  0  0  0  0  0
    8.7655   -1.6450    0.0000 O   0  0  0  0  0  0  0  0  0  0  0  0
    7.6731   -2.5662    0.0000 C   0  0  0  0  0  0  0  0  0  0  0  0
    6.8610   -2.7114    0.0000 C   0  0  0  0  0  0  0  0  0  0  0  0
    6.3292   -2.0807    0.0000 C   0  0  2  0  0  0  0  0  0  0  0  0
    6.0489   -2.8566    0.0000 C   0  0  0  0  0  0  0  0  0  0  0  0
    4.1731   -1.7404    0.0000 C   0  0  2  0  0  0  0  0  0  0  0  0
    3.5218   -1.2340    0.0000 C   0  0  0  0  0  0  0  0  0  0  0  0
    2.8390   -1.6970    0.0000 C   0  0  0  0  0  0  0  0  0  0  0  0
    3.0683   -2.4895    0.0000 C   0  0  0  0  0  0  0  0  0  0  0  0
    2.5619   -3.1408    0.0000 O   0  0  0  0  0  0  0  0  0  0  0  0
  2  1  1  1  0  0  0
  2  3  1  0  0  0  0
  3  4  1  0  0  0  0
  5  4  1  1  0  0  0
  5  6  1  0  0  0  0
  6  7  1  6  0  0  0
  7  8  1  0  0  0  0
  8  9  1  0  0  0  0
  9 10  1  1  0  0  0
 10 11  1  0  0  0  0
 11 12  1  1  0  0  0
 11 13  1  0  0  0  0
 13 14  1  0  0  0  0
 14 15  1  0  0  0  0
  9 15  1  0  0  0  0
  5 15  1  0  0  0  0
 15 16  1  1  0  0  0
  6 17  1  0  0  0  0
  2 17  1  0  0  0  0
 17 18  1  1  0  0  0
 18 19  1  0  0  0  0
 19 20  1  0  0  0  0
  2 20  1  0  0  0  0
 20 21  2  0  0  0  0
M  END

> <ChembankId>
1001924

> <SMILES>
C[C@@]12CC[C@H]3[C@@H](CC[C@H]4C[C@@H](O)CC[C@@]43C)[C@@H]2CCC1=O

> <InChI>
1/C19H30O2/c1-18-9-7-13(20)11-12(18)3-4-14-15-5-6-17(21)19(15,2)10-8-16(14)18/h12-16,20H,3-11H2,1-2H3

$$$$
3189316
  Marvin  11101114192D          

 21 22  0  0  0  0            999 V2000
   -2.1434   -0.4125    0.0000 C   0  0  0  0  0  0  0  0  0  0  0  0
   -2.1434    0.4125    0.0000 O   0  0  0  0  0  0  0  0  0  0  0  0
   -1.4289    0.8250    0.0000 C   0  0  0  0  0  0  0  0  0  0  0  0
   -1.4289    1.6500    0.0000 C   0  0  0  0  0  0  0  0  0  0  0  0
   -0.7145    2.0625    0.0000 C   0  0  0  0  0  0  0  0  0  0  0  0
    0.0000    1.6500    0.0000 C   0  0  0  0  0  0  0  0  0  0  0  0
    0.0000    0.8250    0.0000 C   0  0  0  0  0  0  0  0  0  0  0  0
   -0.7145    0.4125    0.0000 C   0  0  0  0  0  0  0  0  0  0  0  0
    0.7145    2.0625    0.0000 C   0  0  0  0  0  0  0  0  0  0  0  0
    0.7145    2.8875    0.0000 C   0  0  0  0  0  0  0  0  0  0  0  0
    1.4289    3.3000    0.0000 C   0  0  0  0  0  0  0  0  0  0  0  0
    2.1434    2.8875    0.0000 C   0  0  0  0  0  0  0  0  0  0  0  0
    2.8579    3.3000    0.0000 N   0  0  0  0  0  0  0  0  0  0  0  0
    2.1434    2.0625    0.0000 N   0  0  0  0  0  0  0  0  0  0  0  0
    2.8579    1.6500    0.0000 C   0  0  0  0  0  0  0  0  0  0  0  0
    2.8579    0.8250    0.0000 C   0  0  0  0  0  0  0  0  0  0  0  0
    3.5724    0.4125    0.0000 C   0  0  0  0  0  0  0  0  0  0  0  0
    4.2868    0.8250    0.0000 C   0  0  0  0  0  0  0  0  0  0  0  0
    4.2868    1.6500    0.0000 O   0  0  0  0  0  0  0  0  0  0  0  0
    5.0013    0.4125    0.0000 O   0  0  0  0  0  0  0  0  0  0  0  0
    1.4289    1.6500    0.0000 N   0  0  0  0  0  0  0  0  0  0  0  0
  1  2  1  0  0  0  0
  2  3  1  0  0  0  0
  3  4  4  0  0  0  0
  4  5  4  0  0  0  0
  5  6  4  0  0  0  0
  6  7  4  0  0  0  0
  7  8  4  0  0  0  0
  3  8  4  0  0  0  0
  6  9  1  0  0  0  0
  9 10  4  0  0  0  0
 10 11  4  0  0  0  0
 11 12  4  0  0  0  0
 12 13  2  0  0  0  0
 12 14  4  0  0  0  0
 14 15  1  0  0  0  0
 15 16  1  0  0  0  0
 16 17  1  0  0  0  0
 17 18  1  0  0  0  0
 18 19  2  0  0  0  0
 18 20  1  0  0  0  0
 14 21  4  0  0  0  0
  9 21  4  0  0  0  0
M  END

> <ChembankId>
3189316

> <SMILES>
COc1ccc(cc1)c2ccc(=N)n(CCCC(=O)O)n2

> <InChI>
1/C15H17N3O3/c1-21-12-6-4-11(5-7-12)13-8-9-14(16)18(17-13)10-2-3-15(19)20/h4-9,16H,2-3,10H2,1H3,(H,19,20)

$$$$
1300555
  Marvin  11101114192D          

 21 22  0  0  0  0            999 V2000
    4.2868    0.8250    0.0000 C   0  0  0  0  0  0  0  0  0  0  0  0
    5.0013    0.4125    0.0000 C   0  0  0  0  0  0  0  0  0  0  0  0
    4.5888   -0.3020    0.0000 C   0  0  0  0  0  0  0  0  0  0  0  0
    5.4138    1.1270    0.0000 C   0  0  0  0  0  0  0  0  0  0  0  0
    5.7158    0.0000    0.0000 N   0  0  0  0  0  0  0  0  0  0  0  0
    6.4302    0.4125    0.0000 C   0  0  0  0  0  0  0  0  0  0  0  0
    7.1447    0.0000    0.0000 C   0  0  0  0  0  0  0  0  0  0  0  0
    7.1447   -0.8250    0.0000 O   0  0  0  0  0  0  0  0  0  0  0  0
    7.8592    0.4125    0.0000 C   0  0  0  0  0  0  0  0  0  0  0  0
    8.5737    0.0000    0.0000 O   0  0  0  0  0  0  0  0  0  0  0  0
    9.2881    0.4125    0.0000 C   0  0  0  0  0  0  0  0  0  0  0  0
    9.2881    1.2375    0.0000 C   0  0  0  0  0  0  0  0  0  0  0  0
   10.0026    1.6500    0.0000 C   0  0  0  0  0  0  0  0  0  0  0  0
   10.7171    1.2375    0.0000 C   0  0  0  0  0  0  0  0  0  0  0  0
   10.7171    0.4125    0.0000 C   0  0  0  0  0  0  0  0  0  0  0  0
   11.4315    0.0000    0.0000 N   0  0  0  0  0  0  0  0  0  0  0  0
   11.4315   -0.8250    0.0000 C   0  0  0  0  0  0  0  0  0  0  0  0
   12.1460   -1.2375    0.0000 O   0  0  0  0  0  0  0  0  0  0  0  0
   10.7171   -1.2375    0.0000 C   0  0  0  0  0  0  0  0  0  0  0  0
   10.0026   -0.8250    0.0000 C   0  0  0  0  0  0  0  0  0  0  0  0
   10.0026    0.0000    0.0000 C   0  0  0  0  0  0  0  0  0  0  0  0
  1  2  1  0  0  0  0
  2  3  1  0  0  0  0
  2  4  1  0  0  0  0
  2  5  1  0  0  0  0
  5  6  1  0  0  0  0
  6  7  1  0  0  0  0
  7  8  1  0  0  0  0
  7  9  1  0  0  0  0
  9 10  1  0  0  0  0
 10 11  1  0  0  0  0
 11 12  4  0  0  0  0
 12 13  4  0  0  0  0
 13 14  4  0  0  0  0
 14 15  4  0  0  0  0
 15 16  1  0  0  0  0
 16 17  1  0  0  0  0
 17 18  2  0  0  0  0
 17 19  1  0  0  0  0
 19 20  1  0  0  0  0
 20 21  1  0  0  0  0
 11 21  4  0  0  0  0
 15 21  4  0  0  0  0
M  END

> <ChembankId>
1300555

> <SMILES>
CC(C)(C)NCC(O)COc1cccc2NC(=O)CCc12

> <InChI>
1/C16H24N2O3/c1-16(2,3)17-9-11(19)10-21-14-6-4-5-13-12(14)7-8-15(20)18-13/h4-6,11,17,19H,7-10H2,1-3H3,(H,18,20)

$$$$
3189433
  Marvin  11101114192D          

 24 24  0  0  1  0            999 V2000
   -2.1434   -0.4125    0.0000 O   0  0  0  0  0  0  0  0  0  0  0  0
   -1.4289   -0.0000    0.0000 C   0  0  0  0  0  0  0  0  0  0  0  0
   -1.4289    0.8250    0.0000 C   0  0  1  0  0  0  0  0  0  0  0  0
   -2.1434    1.2375    0.0000 O   0  0  0  0  0  0  0  0  0  0  0  0
   -0.7145    1.2375    0.0000 C   0  0  1  0  0  0  0  0  0  0  0  0
   -0.7145    2.0625    0.0000 O   0  0  0  0  0  0  0  0  0  0  0  0
   -1.4289    2.4750    0.0000 C   0  0  2  0  0  0  0  0  0  0  0  0
   -2.1434    2.0625    0.0000 O   0  0  0  0  0  0  0  0  0  0  0  0
   -2.8579    2.4750    0.0000 C   0  0  2  0  0  0  0  0  0  0  0  0
   -3.5724    2.0625    0.0000 C   0  0  0  0  0  0  0  0  0  0  0  0
   -4.2868    2.4750    0.0000 O   0  0  0  0  0  0  0  0  0  0  0  0
   -2.8579    3.3000    0.0000 C   0  0  2  0  0  0  0  0  0  0  0  0
   -3.5724    3.7125    0.0000 O   0  0  0  0  0  0  0  0  0  0  0  0
   -2.1434    3.7125    0.0000 C   0  0  2  0  0  0  0  0  0  0  0  0
   -2.1434    4.5375    0.0000 O   0  0  0  0  0  0  0  0  0  0  0  0
   -1.4289    3.3000    0.0000 C   0  0  1  0  0  0  0  0  0  0  0  0
   -0.7145    3.7125    0.0000 O   0  0  0  0  0  0  0  0  0  0  0  0
   -0.0000    0.8250    0.0000 C   0  0  2  0  0  0  0  0  0  0  0  0
   -0.0000   -0.0000    0.0000 O   0  0  0  0  0  0  0  0  0  0  0  0
    0.7145    1.2375    0.0000 C   0  0  1  0  0  0  0  0  0  0  0  0
    0.7145    2.0625    0.0000 O   0  0  0  0  0  0  0  0  0  0  0  0
    1.4289    0.8250    0.0000 C   0  0  0  0  0  0  0  0  0  0  0  0
    2.1434    1.2375    0.0000 O   0  0  0  0  0  0  0  0  0  0  0  0
    1.4289   -0.0000    0.0000 O   0  0  0  0  0  0  0  0  0  0  0  0
  1  2  1  0  0  0  0
  2  3  1  0  0  0  0
  3  4  1  1  0  0  0
  3  5  1  0  0  0  0
  5  6  1  1  0  0  0
  7  6  1  6  0  0  0
  7  8  1  0  0  0  0
  8  9  1  0  0  0  0
  9 10  1  6  0  0  0
 10 11  1  0  0  0  0
  9 12  1  0  0  0  0
 12 13  1  6  0  0  0
 12 14  1  0  0  0  0
 14 15  1  6  0  0  0
 14 16  1  0  0  0  0
  7 16  1  0  0  0  0
 16 17  1  1  0  0  0
  5 18  1  0  0  0  0
 18 19  1  1  0  0  0
 18 20  1  0  0  0  0
 20 21  1  1  0  0  0
 20 22  1  0  0  0  0
 22 23  2  0  0  0  0
 22 24  1  0  0  0  0
M  END

> <ChembankId>
3189433

> <SMILES>
OC[C@@H](O)[C@@H](O[C@@H]1O[C@H](CO)[C@H](O)[C@H](O)[C@H]1O)[C@H](O)[C@@H](O)C(=O)O

> <InChI>
1/C12H22O12/c13-1-3(15)10(7(18)8(19)11(21)22)24-12-9(20)6(17)5(16)4(2-14)23-12/h3-10,12-20H,1-2H2,(H,21,22)

$$$$
3189435
  Marvin  11101114192D          

 20 20  0  0  1  0            999 V2000
    2.8579   -0.0000    0.0000 C   0  0  0  0  0  0  0  0  0  0  0  0
    2.8579    0.8250    0.0000 C   0  0  1  0  0  0  0  0  0  0  0  0
    2.1434    1.2375    0.0000 O   0  0  0  0  0  0  0  0  0  0  0  0
    1.4289    0.8250    0.0000 C   0  0  2  0  0  0  0  0  0  0  0  0
    1.4289   -0.0000    0.0000 C   0  0  2  0  0  0  0  0  0  0  0  0
    2.1434   -0.4125    0.0000 O   0  0  0  0  0  0  0  0  0  0  0  0
    0.7145   -0.4125    0.0000 C   0  0  0  0  0  0  0  0  0  0  0  0
    0.7145   -1.2375    0.0000 C   0  0  0  0  0  0  0  0  0  0  0  0
   -0.0000   -1.6500    0.0000 O   0  0  0  0  0  0  0  0  0  0  0  0
    0.0000    0.0000    0.0000 O   0  0  0  0  0  0  0  0  0  0  0  0
    0.0000    0.8250    0.0000 C   0  0  2  0  0  0  0  0  0  0  0  0
   -0.7145    1.2375    0.0000 O   0  0  0  0  0  0  0  0  0  0  0  0
    0.7145    1.2375    0.0000 C   0  0  0  0  0  0  0  0  0  0  0  0
    0.7145    2.0625    0.0000 N   0  0  0  0  0  0  0  0  0  0  0  0
    1.4289    2.4750    0.0000 C   0  0  0  0  0  0  0  0  0  0  0  0
    2.1434    2.0625    0.0000 O   0  0  0  0  0  0  0  0  0  0  0  0
    1.4289    3.3000    0.0000 C   0  0  0  0  0  0  0  0  0  0  0  0
    3.5724    1.2375    0.0000 C   0  0  0  0  0  0  0  0  0  0  0  0
    3.5724    2.0625    0.0000 O   0  0  0  0  0  0  0  0  0  0  0  0
    4.2868    0.8250    0.0000 O   0  0  0  0  0  0  0  0  0  0  0  0
  2  1  1  1  0  0  0
  2  3  1  0  0  0  0
  4  3  1  6  0  0  0
  4  5  1  0  0  0  0
  5  6  1  6  0  0  0
  5  7  1  0  0  0  0
  7  8  1  0  0  0  0
  8  9  1  0  0  0  0
  7 10  1  0  0  0  0
 10 11  1  0  0  0  0
 11 12  1  6  0  0  0
 11 13  1  0  0  0  0
  4 13  1  0  0  0  0
 13 14  1  0  0  0  0
 14 15  1  0  0  0  0
 15 16  2  0  0  0  0
 15 17  1  0  0  0  0
  2 18  1  0  0  0  0
 18 19  2  0  0  0  0
 18 20  1  0  0  0  0
M  END

> <ChembankId>
3189435

> <SMILES>
C[C@@H](O[C@@H]1[C@H](O)C(CO)O[C@H](O)C1NC(=O)C)C(=O)O

> <InChI>
1/C11H19NO8/c1-4(10(16)17)19-9-7(12-5(2)14)11(18)20-6(3-13)8(9)15/h4,6-9,11,13,15,18H,3H2,1-2H3,(H,12,14)(H,16,17)/t4-,6-,7+,8+,9+,11+/m1/s1

$$$$
1067495
  Marvin  11101114192D          

 14 15  0  0  0  0            999 V2000
    1.9709    0.2323    0.0000 O   0  5  0  0  0  0  0  0  0  0  0  0
    1.2564   -0.1802    0.0000 N   0  3  0  0  0  0  0  0  0  0  0  0
    0.5420    0.2323    0.0000 O   0  0  0  0  0  0  0  0  0  0  0  0
    1.2564   -1.0052    0.0000 C   0  0  0  0  0  0  0  0  0  0  0  0
    1.9239   -1.4901    0.0000 C   0  0  0  0  0  0  0  0  0  0  0  0
    1.6689   -2.2748    0.0000 N   0  0  0  0  0  0  0  0  0  0  0  0
    0.8439   -2.2748    0.0000 C   0  0  0  0  0  0  0  0  0  0  0  0
    0.5890   -1.4901    0.0000 S   0  0  0  0  0  0  0  0  0  0  0  0
    0.3590   -2.9422    0.0000 N   0  0  0  0  0  0  0  0  0  0  0  0
    0.6139   -3.7268    0.0000 C   0  0  0  0  0  0  0  0  0  0  0  0
   -0.0535   -4.2117    0.0000 C   0  0  0  0  0  0  0  0  0  0  0  0
   -0.7209   -3.7268    0.0000 N   0  0  0  0  0  0  0  0  0  0  0  0
   -0.4660   -2.9422    0.0000 C   0  0  0  0  0  0  0  0  0  0  0  0
   -0.9509   -2.2748    0.0000 O   0  0  0  0  0  0  0  0  0  0  0  0
  1  2  1  0  0  0  0
  2  3  2  0  0  0  0
  2  4  1  0  0  0  0
  4  5  4  0  0  0  0
  5  6  4  0  0  0  0
  6  7  4  0  0  0  0
  7  8  4  0  0  0  0
  4  8  4  0  0  0  0
  7  9  1  0  0  0  0
  9 10  1  0  0  0  0
 10 11  1  0  0  0  0
 11 12  1  0  0  0  0
 12 13  1  0  0  0  0
  9 13  1  0  0  0  0
 13 14  2  0  0  0  0
M  CHG  2   1  -1   2   1
M  END

> <ChembankId>
1067495

> <SMILES>
[O-][N+](=O)c1cnc(s1)N2CCNC2=O

> <InChI>
1/C6H6N4O3S/c11-5-7-1-2-9(5)6-8-3-4(14-6)10(12)13/h3H,1-2H2,(H,7,11)

$$$$
3069161
  Marvin  11101114192D          

 35 38  0  0  1  0            999 V2000
   -1.7387   -1.5885    0.0000 N   0  0  0  0  0  0  0  0  0  0  0  0
   -1.5252   -0.7916    0.0000 C   0  0  0  0  0  0  0  0  0  0  0  0
   -2.1086   -0.2082    0.0000 C   0  0  0  0  0  0  0  0  0  0  0  0
   -2.9055   -0.4217    0.0000 C   0  0  0  0  0  0  0  0  0  0  0  0
   -3.4888    0.1616    0.0000 C   0  0  0  0  0  0  0  0  0  0  0  0
   -3.2753    0.9585    0.0000 C   0  0  0  0  0  0  0  0  0  0  0  0
   -2.4784    1.1721    0.0000 C   0  0  0  0  0  0  0  0  0  0  0  0
   -1.8950    0.5887    0.0000 C   0  0  0  0  0  0  0  0  0  0  0  0
   -1.0982    0.8022    0.0000 C   0  0  0  0  0  0  0  0  0  0  0  0
   -0.5148    0.2189    0.0000 C   0  0  0  0  0  0  0  0  0  0  0  0
   -0.7283   -0.5780    0.0000 O   0  0  0  0  0  0  0  0  0  0  0  0
    0.2821    0.4324    0.0000 N   0  0  0  0  0  0  0  0  0  0  0  0
    0.8655   -0.1510    0.0000 C   0  0  1  0  0  0  0  0  0  0  0  0
    1.6905   -0.1510    0.0000 C   0  0  1  0  0  0  0  0  0  0  0  0
    2.4049    0.2615    0.0000 S   0  0  0  0  0  0  0  0  0  0  0  0
    3.1194   -0.1510    0.0000 C   0  0  0  0  0  0  0  0  0  0  0  0
    3.1194   -0.9760    0.0000 C   0  0  0  0  0  0  0  0  0  0  0  0
    2.4049   -1.3885    0.0000 C   0  0  0  0  0  0  0  0  0  0  0  0
    1.6905   -0.9760    0.0000 N   0  0  0  0  0  0  0  0  0  0  0  0
    0.8655   -0.9760    0.0000 C   0  0  0  0  0  0  0  0  0  0  0  0
    0.2821   -1.5593    0.0000 O   0  0  0  0  0  0  0  0  0  0  0  0
    2.4049   -2.2135    0.0000 C   0  0  0  0  0  0  0  0  0  0  0  0
    1.6905   -2.6260    0.0000 O   0  0  0  0  0  0  0  0  0  0  0  0
    3.1194   -2.6260    0.0000 O   0  0  0  0  0  0  0  0  0  0  0  0
    3.8339   -1.3885    0.0000 C   0  0  0  0  0  0  0  0  0  0  0  0
    3.8339   -2.2135    0.0000 S   0  0  0  0  0  0  0  0  0  0  0  0
    4.5483   -2.6260    0.0000 C   0  0  0  0  0  0  0  0  0  0  0  0
    5.3020   -2.2904    0.0000 N   0  0  0  0  0  0  0  0  0  0  0  0
    5.8540   -2.9035    0.0000 N   0  0  0  0  0  0  0  0  0  0  0  0
    5.4415   -3.6180    0.0000 N   0  0  0  0  0  0  0  0  0  0  0  0
    4.6346   -3.4465    0.0000 N   0  0  0  0  0  0  0  0  0  0  0  0
    4.0215   -3.9985    0.0000 C   0  0  0  0  0  0  0  0  0  0  0  0
    4.1930   -4.8055    0.0000 C   0  0  0  0  0  0  0  0  0  0  0  0
    4.9776   -5.0604    0.0000 O   0  0  0  0  0  0  0  0  0  0  0  0
    3.5799   -5.3575    0.0000 O   0  0  0  0  0  0  0  0  0  0  0  0
  1  2  1  0  0  0  0
  2  3  1  0  0  0  0
  3  4  4  0  0  0  0
  4  5  4  0  0  0  0
  5  6  4  0  0  0  0
  6  7  4  0  0  0  0
  7  8  4  0  0  0  0
  3  8  4  0  0  0  0
  8  9  1  0  0  0  0
  9 10  1  0  0  0  0
 10 11  2  0  0  0  0
 10 12  1  0  0  0  0
 13 12  1  1  0  0  0
 13 14  1  0  0  0  0
 14 15  1  0  0  0  0
 15 16  1  0  0  0  0
 16 17  1  0  0  0  0
 17 18  2  0  0  0  0
 18 19  1  0  0  0  0
 14 19  1  1  0  0  0
 19 20  1  0  0  0  0
 13 20  1  0  0  0  0
 20 21  2  0  0  0  0
 18 22  1  0  0  0  0
 22 23  2  0  0  0  0
 22 24  1  0  0  0  0
 17 25  1  0  0  0  0
 25 26  1  0  0  0  0
 26 27  1  0  0  0  0
 27 28  4  0  0  0  0
 28 29  4  0  0  0  0
 29 30  4  0  0  0  0
 30 31  4  0  0  0  0
 27 31  4  0  0  0  0
 31 32  1  0  0  0  0
 32 33  1  0  0  0  0
 33 34  2  0  0  0  0
 33 35  1  0  0  0  0
M  END

> <ChembankId>
3069161

> <SMILES>
NCc1ccccc1CC(=O)N[C@H]2[C@H]3SCC(=C(N3C2=O)C(=O)O)CSc4nnnn4CC(=O)O

> <InChI>
1/C20H21N7O6S2/c21-6-11-4-2-1-3-10(11)5-13(28)22-15-17(31)27-16(19(32)33)12(8-34-18(15)27)9-35-20-23-24-25-26(20)7-14(29)30/h1-4,15,18H,5-9,21H2,(H,22,28)(H,29,30)(H,32,33)

$$$$
3069162
  Marvin  11101114192D          

 15 14  0  0  1  0            999 V2000
    4.1250    1.4289    0.0000 C   0  0  0  0  0  0  0  0  0  0  0  0
    3.7125    2.1434    0.0000 C   0  0  0  0  0  0  0  0  0  0  0  0
    3.3000    2.8579    0.0000 C   0  0  0  0  0  0  0  0  0  0  0  0
    2.9980    1.7309    0.0000 C   0  0  0  0  0  0  0  0  0  0  0  0
    2.2836    2.1434    0.0000 O   0  0  0  0  0  0  0  0  0  0  0  0
    4.4270    2.5559    0.0000 C   0  0  2  0  0  0  0  0  0  0  0  0
    4.4270    3.3809    0.0000 O   0  0  0  0  0  0  0  0  0  0  0  0
    5.1414    2.1434    0.0000 C   0  0  0  0  0  0  0  0  0  0  0  0
    5.1414    1.3184    0.0000 O   0  0  0  0  0  0  0  0  0  0  0  0
    5.8559    2.5559    0.0000 N   0  0  0  0  0  0  0  0  0  0  0  0
    6.5704    2.1434    0.0000 C   0  0  0  0  0  0  0  0  0  0  0  0
    7.2849    2.5559    0.0000 C   0  0  0  0  0  0  0  0  0  0  0  0
    7.9993    2.1434    0.0000 C   0  0  0  0  0  0  0  0  0  0  0  0
    8.7138    2.5559    0.0000 O   0  0  0  0  0  0  0  0  0  0  0  0
    7.9993    1.3184    0.0000 O   0  0  0  0  0  0  0  0  0  0  0  0
  1  2  1  0  0  0  0
  2  3  1  0  0  0  0
  2  4  1  0  0  0  0
  4  5  1  0  0  0  0
  2  6  1  0  0  0  0
  6  7  1  6  0  0  0
  6  8  1  0  0  0  0
  8  9  2  0  0  0  0
  8 10  1  0  0  0  0
 10 11  1  0  0  0  0
 11 12  1  0  0  0  0
 12 13  1  0  0  0  0
 13 14  2  0  0  0  0
 13 15  1  0  0  0  0
M  END

> <ChembankId>
3069162

> <SMILES>
CC(C)(CO)[C@H](O)C(=O)NCCC(=O)O

> <InChI>
1/C9H17NO5/c1-9(2,5-11)7(14)8(15)10-4-3-6(12)13/h7,11,14H,3-5H2,1-2H3,(H,10,15)(H,12,13)/t7-/m0/s1

$$$$
3189436
  Marvin  11101114192D          

 36 39  0  0  1  0            999 V2000
    1.5799    1.0865    0.0000 C   0  0  0  0  0  0  0  0  0  0  0  0
    0.8655    0.6740    0.0000 O   0  0  0  0  0  0  0  0  0  0  0  0
    0.8655   -0.1510    0.0000 C   0  0  2  0  0  0  0  0  0  0  0  0
    0.0405   -0.1510    0.0000 N   0  0  0  0  0  0  0  0  0  0  0  0
   -0.3720    0.5635    0.0000 C   0  0  0  0  0  0  0  0  0  0  0  0
   -1.1970    0.5635    0.0000 O   0  0  0  0  0  0  0  0  0  0  0  0
    0.0405    1.2780    0.0000 C   0  0  0  0  0  0  0  0  0  0  0  0
   -0.1731    2.0748    0.0000 S   0  0  0  0  0  0  0  0  0  0  0  0
    0.6238    2.2884    0.0000 C   0  0  0  0  0  0  0  0  0  0  0  0
    1.0363    3.0028    0.0000 C   0  0  0  0  0  0  0  0  0  0  0  0
    0.6238    3.7173    0.0000 C   0  0  0  0  0  0  0  0  0  0  0  0
    1.0363    4.4318    0.0000 O   0  0  0  0  0  0  0  0  0  0  0  0
   -0.2012    3.7173    0.0000 N   0  0  0  0  0  0  0  0  0  0  0  0
    1.8613    3.0028    0.0000 C   0  0  0  0  0  0  0  0  0  0  0  0
    2.2738    3.7173    0.0000 O   0  0  0  0  0  0  0  0  0  0  0  0
    2.2738    2.2884    0.0000 O   0  0  0  0  0  0  0  0  0  0  0  0
    0.8373    1.4915    0.0000 S   0  0  0  0  0  0  0  0  0  0  0  0
    1.6905   -0.1510    0.0000 C   0  0  1  0  0  0  0  0  0  0  0  0
    2.4049    0.2615    0.0000 S   0  0  0  0  0  0  0  0  0  0  0  0
    3.1194   -0.1510    0.0000 C   0  0  0  0  0  0  0  0  0  0  0  0
    3.1194   -0.9760    0.0000 C   0  0  0  0  0  0  0  0  0  0  0  0
    2.4049   -1.3885    0.0000 C   0  0  0  0  0  0  0  0  0  0  0  0
    1.6905   -0.9760    0.0000 N   0  0  0  0  0  0  0  0  0  0  0  0
    0.8655   -0.9760    0.0000 C   0  0  0  0  0  0  0  0  0  0  0  0
    0.2821   -1.5593    0.0000 O   0  0  0  0  0  0  0  0  0  0  0  0
    2.4049   -2.2135    0.0000 C   0  0  0  0  0  0  0  0  0  0  0  0
    1.6905   -2.6260    0.0000 O   0  0  0  0  0  0  0  0  0  0  0  0
    3.1194   -2.6260    0.0000 O   0  0  0  0  0  0  0  0  0  0  0  0
    3.8339   -1.3885    0.0000 C   0  0  0  0  0  0  0  0  0  0  0  0
    4.5483   -0.9760    0.0000 S   0  0  0  0  0  0  0  0  0  0  0  0
    4.5483   -0.1510    0.0000 C   0  0  0  0  0  0  0  0  0  0  0  0
    3.8809    0.3339    0.0000 N   0  0  0  0  0  0  0  0  0  0  0  0
    4.1358    1.1186    0.0000 N   0  0  0  0  0  0  0  0  0  0  0  0
    4.9608    1.1186    0.0000 N   0  0  0  0  0  0  0  0  0  0  0  0
    5.2158    0.3339    0.0000 N   0  0  0  0  0  0  0  0  0  0  0  0
    6.0004    0.0790    0.0000 C   0  0  0  0  0  0  0  0  0  0  0  0
  1  2  1  0  0  0  0
  3  2  1  6  0  0  0
  3  4  1  1  0  0  0
  4  5  1  0  0  0  0
  5  6  2  0  0  0  0
  5  7  1  0  0  0  0
  7  8  1  0  0  0  0
  8  9  1  0  0  0  0
  9 10  2  0  0  0  0
 10 11  1  0  0  0  0
 11 12  2  0  0  0  0
 11 13  1  0  0  0  0
 10 14  1  0  0  0  0
 14 15  2  0  0  0  0
 14 16  1  0  0  0  0
  9 17  1  0  0  0  0
  7 17  1  0  0  0  0
  3 18  1  0  0  0  0
 18 19  1  0  0  0  0
 19 20  1  0  0  0  0
 20 21  1  0  0  0  0
 21 22  2  0  0  0  0
 22 23  1  0  0  0  0
 18 23  1  1  0  0  0
 23 24  1  0  0  0  0
  3 24  1  0  0  0  0
 24 25  2  0  0  0  0
 22 26  1  0  0  0  0
 26 27  2  0  0  0  0
 26 28  1  0  0  0  0
 21 29  1  0  0  0  0
 29 30  1  0  0  0  0
 30 31  1  0  0  0  0
 31 32  4  0  0  0  0
 32 33  4  0  0  0  0
 33 34  4  0  0  0  0
 34 35  4  0  0  0  0
 31 35  4  0  0  0  0
 35 36  1  0  0  0  0
M  END

> <ChembankId>
3189436

> <SMILES>
CO[C@]1(NC(=O)C2SC(=C(C(=O)N)C(=O)O)S2)[C@H]3SCC(=C(N3C1=O)C(=O)O)CSc4nnnn4C

> <InChI>
1/C17H17N7O8S4/c1-23-16(20-21-22-23)34-4-5-3-33-15-17(32-2,14(31)24(15)7(5)11(29)30)19-9(26)13-35-12(36-13)6(8(18)25)10(27)28/h13,15H,3-4H2,1-2H3,(H2,18,25)(H,19,26)(H,27,28)(H,29,30)

$$$$
3189438
  Marvin  11101114192D          

  9  9  0  0  0  0            999 V2000
    2.1434    1.2375    0.0000 C   0  0  0  0  0  0  0  0  0  0  0  0
    1.4289    0.8250    0.0000 C   0  0  0  0  0  0  0  0  0  0  0  0
    1.4289   -0.0000    0.0000 N   0  0  0  0  0  0  0  0  0  0  0  0
    0.7145   -0.4125    0.0000 N   0  0  0  0  0  0  0  0  0  0  0  0
    0.0000    0.0000    0.0000 C   0  0  0  0  0  0  0  0  0  0  0  0
   -0.7145   -0.4125    0.0000 O   0  0  0  0  0  0  0  0  0  0  0  0
    0.0000    0.8250    0.0000 N   0  0  0  0  0  0  0  0  0  0  0  0
    0.7145    1.2375    0.0000 C   0  0  0  0  0  0  0  0  0  0  0  0
    0.7145    2.0625    0.0000 O   0  0  0  0  0  0  0  0  0  0  0  0
  1  2  1  0  0  0  0
  2  3  4  0  0  0  0
  3  4  4  0  0  0  0
  4  5  4  0  0  0  0
  5  6  2  0  0  0  0
  5  7  4  0  0  0  0
  7  8  4  0  0  0  0
  2  8  4  0  0  0  0
  8  9  2  0  0  0  0
M  STY  2   1 DAT   2 DAT
M  SAL   1  1   4
M  SDT   1 MRV_IMPLICIT_H                                        
M  SDD   1     0.0000    0.0000    DR    ALL  0       0  
M  SED   1 IMPL_H1
M  SAL   2  1   7
M  SDT   2 MRV_IMPLICIT_H                                        
M  SDD   2     0.0000    0.0000    DR    ALL  0       0  
M  SED   2 IMPL_H1
M  END

> <ChembankId>
3189438

> <SMILES>
Cc1n[nH]c(=O)[nH]c1=O

> <InChI>
1/C4H5N3O2/c1-2-3(8)5-4(9)7-6-2/h1H3,(H2,5,7,8,9)

$$$$
1077918
  Marvin  11101114192D          

 28 31  0  0  0  0            999 V2000
   -0.0517   -9.6532    0.0000 F   0  0  0  0  0  0  0  0  0  0  0  0
    0.2033   -8.8685    0.0000 C   0  0  0  0  0  0  0  0  0  0  0  0
   -0.3488   -8.2554    0.0000 C   0  0  0  0  0  0  0  0  0  0  0  0
   -0.0938   -7.4708    0.0000 C   0  0  0  0  0  0  0  0  0  0  0  0
    0.7132   -7.2993    0.0000 C   0  0  0  0  0  0  0  0  0  0  0  0
    1.2652   -7.9124    0.0000 C   0  0  0  0  0  0  0  0  0  0  0  0
    1.0102   -8.6970    0.0000 C   0  0  0  0  0  0  0  0  0  0  0  0
    0.9681   -6.5147    0.0000 C   0  0  0  0  0  0  0  0  0  0  0  0
    1.7751   -6.3432    0.0000 O   0  0  0  0  0  0  0  0  0  0  0  0
    0.4161   -5.9016    0.0000 C   0  0  0  0  0  0  0  0  0  0  0  0
    0.6710   -5.1170    0.0000 C   0  0  0  0  0  0  0  0  0  0  0  0
    0.1190   -4.5039    0.0000 C   0  0  0  0  0  0  0  0  0  0  0  0
    0.3739   -3.7192    0.0000 N   0  0  0  0  0  0  0  0  0  0  0  0
   -0.1781   -3.1062    0.0000 C   0  0  0  0  0  0  0  0  0  0  0  0
    0.0768   -2.3215    0.0000 C   0  0  0  0  0  0  0  0  0  0  0  0
    0.8838   -2.1500    0.0000 C   0  0  0  0  0  0  0  0  0  0  0  0
    1.4358   -2.7631    0.0000 C   0  0  0  0  0  0  0  0  0  0  0  0
    1.1809   -3.5477    0.0000 C   0  0  0  0  0  0  0  0  0  0  0  0
    1.1387   -1.3654    0.0000 N   0  0  0  0  0  0  0  0  0  0  0  0
    0.6538   -0.6979    0.0000 C   0  0  0  0  0  0  0  0  0  0  0  0
   -0.1712   -0.6979    0.0000 O   0  0  0  0  0  0  0  0  0  0  0  0
    1.1387   -0.0305    0.0000 N   0  0  0  0  0  0  0  0  0  0  0  0
    1.9233   -0.2854    0.0000 C   0  0  0  0  0  0  0  0  0  0  0  0
    2.6378    0.1271    0.0000 C   0  0  0  0  0  0  0  0  0  0  0  0
    3.3523   -0.2854    0.0000 C   0  0  0  0  0  0  0  0  0  0  0  0
    3.3523   -1.1104    0.0000 C   0  0  0  0  0  0  0  0  0  0  0  0
    2.6378   -1.5229    0.0000 C   0  0  0  0  0  0  0  0  0  0  0  0
    1.9233   -1.1104    0.0000 C   0  0  0  0  0  0  0  0  0  0  0  0
  1  2  1  0  0  0  0
  2  3  4  0  0  0  0
  3  4  4  0  0  0  0
  4  5  4  0  0  0  0
  5  6  4  0  0  0  0
  6  7  4  0  0  0  0
  2  7  4  0  0  0  0
  5  8  1  0  0  0  0
  8  9  2  0  0  0  0
  8 10  1  0  0  0  0
 10 11  1  0  0  0  0
 11 12  1  0  0  0  0
 12 13  1  0  0  0  0
 13 14  1  0  0  0  0
 14 15  1  0  0  0  0
 15 16  1  0  0  0  0
 16 17  1  0  0  0  0
 17 18  1  0  0  0  0
 13 18  1  0  0  0  0
 16 19  1  0  0  0  0
 19 20  4  0  0  0  0
 20 21  2  0  0  0  0
 20 22  4  0  0  0  0
 22 23  4  0  0  0  0
 23 24  4  0  0  0  0
 24 25  4  0  0  0  0
 25 26  4  0  0  0  0
 26 27  4  0  0  0  0
 27 28  4  0  0  0  0
 19 28  4  0  0  0  0
 23 28  4  0  0  0  0
M  STY  1   1 DAT
M  SAL   1  1  22
M  SDT   1 MRV_IMPLICIT_H                                        
M  SDD   1     0.0000    0.0000    DR    ALL  0       0  
M  SED   1 IMPL_H1
M  END

> <ChembankId>
1077918

> <SMILES>
Fc1ccc(cc1)C(=O)CCCN2CCC(CC2)n3c(=O)[nH]c4ccccc34

> <InChI>
1/C22H24FN3O2/c23-17-9-7-16(8-10-17)21(27)6-3-13-25-14-11-18(12-15-25)26-20-5-2-1-4-19(20)24-22(26)28/h1-2,4-5,7-10,18H,3,6,11-15H2,(H,24,28)

$$$$
3189439
  Marvin  11101114192D          

 81 81  0  0  1  0            999 V2000
   -7.1447    8.2500    0.0000 C   0  0  0  0  0  0  0  0  0  0  0  0
   -6.4302    7.8375    0.0000 C   0  0  0  0  0  0  0  0  0  0  0  0
   -6.4302    7.0125    0.0000 C   0  0  0  0  0  0  0  0  0  0  0  0
   -5.7158    8.2500    0.0000 C   0  0  0  0  0  0  0  0  0  0  0  0
   -5.0013    7.8375    0.0000 C   0  0  0  0  0  0  0  0  0  0  0  0
   -4.2868    8.2500    0.0000 C   0  0  0  0  0  0  0  0  0  0  0  0
   -3.5724    7.8375    0.0000 C   0  0  0  0  0  0  0  0  0  0  0  0
   -2.8579    8.2500    0.0000 C   0  0  0  0  0  0  0  0  0  0  0  0
   -2.8579    9.0750    0.0000 O   0  0  0  0  0  0  0  0  0  0  0  0
   -2.1434    7.8375    0.0000 N   0  0  0  0  0  0  0  0  0  0  0  0
   -1.4289    8.2500    0.0000 C   0  0  2  0  0  0  0  0  0  0  0  0
   -1.4289    9.0750    0.0000 C   0  0  0  0  0  0  0  0  0  0  0  0
   -2.1434    9.4875    0.0000 C   0  0  0  0  0  0  0  0  0  0  0  0
   -2.1434   10.3125    0.0000 N   0  0  0  0  0  0  0  0  0  0  0  0
   -0.7145    7.8375    0.0000 C   0  0  0  0  0  0  0  0  0  0  0  0
   -0.7145    7.0125    0.0000 O   0  0  0  0  0  0  0  0  0  0  0  0
    0.0000    8.2500    0.0000 N   0  0  0  0  0  0  0  0  0  0  0  0
    0.7145    7.8375    0.0000 C   0  0  1  0  0  0  0  0  0  0  0  0
    0.7145    7.0125    0.0000 C   0  0  1  0  0  0  0  0  0  0  0  0
    1.4289    6.6000    0.0000 C   0  0  0  0  0  0  0  0  0  0  0  0
    0.0000    6.6000    0.0000 O   0  0  0  0  0  0  0  0  0  0  0  0
    1.4289    8.2500    0.0000 C   0  0  0  0  0  0  0  0  0  0  0  0
    1.4289    9.0750    0.0000 O   0  0  0  0  0  0  0  0  0  0  0  0
    2.1434    7.8375    0.0000 N   0  0  0  0  0  0  0  0  0  0  0  0
    2.8579    8.2500    0.0000 C   0  0  2  0  0  0  0  0  0  0  0  0
    2.8579    9.0750    0.0000 C   0  0  0  0  0  0  0  0  0  0  0  0
    2.1434    9.4875    0.0000 C   0  0  0  0  0  0  0  0  0  0  0  0
    2.1434   10.3125    0.0000 N   0  0  0  0  0  0  0  0  0  0  0  0
    3.5724    7.8375    0.0000 C   0  0  0  0  0  0  0  0  0  0  0  0
    3.5724    7.0125    0.0000 O   0  0  0  0  0  0  0  0  0  0  0  0
    4.2868    8.2500    0.0000 N   0  0  0  0  0  0  0  0  0  0  0  0
    4.2868    9.0750    0.0000 C   0  0  2  0  0  0  0  0  0  0  0  0
    3.5724    9.4875    0.0000 C   0  0  0  0  0  0  0  0  0  0  0  0
    3.5724   10.3125    0.0000 C   0  0  0  0  0  0  0  0  0  0  0  0
    4.2868   10.7250    0.0000 N   0  0  0  0  0  0  0  0  0  0  0  0
    4.2868   11.5500    0.0000 C   0  0  0  0  0  0  0  0  0  0  0  0
    3.5724   11.9625    0.0000 O   0  0  0  0  0  0  0  0  0  0  0  0
    5.0013   11.9625    0.0000 C   0  0  0  0  0  0  0  0  0  0  0  0
    5.0013   12.7875    0.0000 N   0  0  0  0  0  0  0  0  0  0  0  0
    5.7158   13.2000    0.0000 C   0  0  0  0  0  0  0  0  0  0  0  0
    6.4302   12.7875    0.0000 O   0  0  0  0  0  0  0  0  0  0  0  0
    5.7158   14.0250    0.0000 C   0  0  2  0  0  0  0  0  0  0  0  0
    5.0013   14.4375    0.0000 C   0  0  0  0  0  0  0  0  0  0  0  0
    5.0013   15.2625    0.0000 C   0  0  0  0  0  0  0  0  0  0  0  0
    4.2868   15.6750    0.0000 N   0  0  0  0  0  0  0  0  0  0  0  0
    6.4302   14.4375    0.0000 N   0  0  0  0  0  0  0  0  0  0  0  0
    6.4302   15.2625    0.0000 C   0  0  0  0  0  0  0  0  0  0  0  0
    5.7158   15.6750    0.0000 O   0  0  0  0  0  0  0  0  0  0  0  0
    7.1447   15.6750    0.0000 C   0  0  2  0  0  0  0  0  0  0  0  0
    7.1447   16.5000    0.0000 C   0  0  0  0  0  0  0  0  0  0  0  0
    7.8592   16.9125    0.0000 C   0  0  0  0  0  0  0  0  0  0  0  0
    7.8592   17.7375    0.0000 N   0  0  0  0  0  0  0  0  0  0  0  0
    7.8592   15.2625    0.0000 N   0  0  0  0  0  0  0  0  0  0  0  0
    7.8592   14.4375    0.0000 C   0  0  0  0  0  0  0  0  0  0  0  0
    7.1447   14.0250    0.0000 O   0  0  0  0  0  0  0  0  0  0  0  0
    8.5737   14.0250    0.0000 C   0  0  1  0  0  0  0  0  0  0  0  0
    8.5737   13.2000    0.0000 C   0  0  0  0  0  0  0  0  0  0  0  0
    7.8592   12.7875    0.0000 N   0  0  0  0  0  0  0  0  0  0  0  0
    7.8592   11.9625    0.0000 C   0  0  0  0  0  0  0  0  0  0  0  0
    8.5737   11.5500    0.0000 O   0  0  0  0  0  0  0  0  0  0  0  0
    7.1447   11.5500    0.0000 C   0  0  1  0  0  0  0  0  0  0  0  0
    7.8592   11.1375    0.0000 C   0  0  0  0  0  0  0  0  0  0  0  0
    7.8592   10.3125    0.0000 C   0  0  0  0  0  0  0  0  0  0  0  0
    8.5737    9.9000    0.0000 C   0  0  0  0  0  0  0  0  0  0  0  0
    7.1447    9.9000    0.0000 C   0  0  0  0  0  0  0  0  0  0  0  0
    7.1447   10.7250    0.0000 N   0  0  0  0  0  0  0  0  0  0  0  0
    6.4302   10.3125    0.0000 C   0  0  0  0  0  0  0  0  0  0  0  0
    5.7158   10.7250    0.0000 O   0  0  0  0  0  0  0  0  0  0  0  0
    6.4302    9.4875    0.0000 C   0  0  2  0  0  0  0  0  0  0  0  0
    7.1447    9.0750    0.0000 C   0  0  0  0  0  0  0  0  0  0  0  0
    7.1447    8.2500    0.0000 C   0  0  0  0  0  0  0  0  0  0  0  0
    6.4302    7.8375    0.0000 N   0  0  0  0  0  0  0  0  0  0  0  0
    5.7158    9.0750    0.0000 N   0  0  0  0  0  0  0  0  0  0  0  0
    5.0013    9.4875    0.0000 C   0  0  0  0  0  0  0  0  0  0  0  0
    5.0013   10.3125    0.0000 O   0  0  0  0  0  0  0  0  0  0  0  0
    9.2881   14.4375    0.0000 C   0  0  0  0  0  0  0  0  0  0  0  0
   10.0026   14.0250    0.0000 C   0  0  0  0  0  0  0  0  0  0  0  0
    9.2881   15.2625    0.0000 C   0  0  0  0  0  0  0  0  0  0  0  0
    4.2868   12.3750    0.0000 C   0  0  1  0  0  0  0  0  0  0  0  0
    3.4663   12.4612    0.0000 C   0  0  0  0  0  0  0  0  0  0  0  0
    4.2868   13.2000    0.0000 O   0  0  0  0  0  0  0  0  0  0  0  0
  1  2  1  0  0  0  0
  2  3  1  0  0  0  0
  2  4  1  0  0  0  0
  4  5  1  0  0  0  0
  5  6  1  0  0  0  0
  6  7  1  0  0  0  0
  7  8  1  0  0  0  0
  8  9  2  0  0  0  0
  8 10  1  0  0  0  0
 11 10  1  6  0  0  0
 11 12  1  0  0  0  0
 12 13  1  0  0  0  0
 13 14  1  0  0  0  0
 11 15  1  0  0  0  0
 15 16  2  0  0  0  0
 15 17  1  0  0  0  0
 18 17  1  6  0  0  0
 18 19  1  0  0  0  0
 19 20  1  0  0  0  0
 19 21  1  1  0  0  0
 18 22  1  0  0  0  0
 22 23  2  0  0  0  0
 22 24  1  0  0  0  0
 25 24  1  6  0  0  0
 25 26  1  0  0  0  0
 26 27  1  0  0  0  0
 27 28  1  0  0  0  0
 25 29  1  0  0  0  0
 29 30  2  0  0  0  0
 29 31  1  0  0  0  0
 32 31  1  6  0  0  0
 32 33  1  0  0  0  0
 33 34  1  0  0  0  0
 34 35  1  0  0  0  0
 35 36  1  0  0  0  0
 36 37  2  0  0  0  0
 36 38  1  0  0  0  0
 38 39  1  0  0  0  0
 39 40  1  0  0  0  0
 40 41  2  0  0  0  0
 40 42  1  0  0  0  0
 42 43  1  6  0  0  0
 43 44  1  0  0  0  0
 44 45  1  0  0  0  0
 42 46  1  0  0  0  0
 46 47  1  0  0  0  0
 47 48  2  0  0  0  0
 47 49  1  0  0  0  0
 49 50  1  6  0  0  0
 50 51  1  0  0  0  0
 51 52  1  0  0  0  0
 49 53  1  0  0  0  0
 53 54  1  0  0  0  0
 54 55  2  0  0  0  0
 54 56  1  0  0  0  0
 56 57  1  0  0  0  0
 57 58  1  0  0  0  0
 58 59  1  0  0  0  0
 59 60  2  0  0  0  0
 59 61  1  0  0  0  0
 61 62  1  6  0  0  0
 62 63  1  0  0  0  0
 63 64  1  0  0  0  0
 63 65  1  0  0  0  0
 61 66  1  0  0  0  0
 66 67  1  0  0  0  0
 67 68  2  0  0  0  0
 67 69  1  0  0  0  0
 69 70  1  6  0  0  0
 70 71  1  0  0  0  0
 71 72  1  0  0  0  0
 69 73  1  0  0  0  0
 73 74  1  0  0  0  0
 32 74  1  0  0  0  0
 74 75  2  0  0  0  0
 56 76  1  6  0  0  0
 76 77  1  0  0  0  0
 76 78  1  0  0  0  0
 38 79  1  0  0  0  0
 79 80  1  0  0  0  0
 79 81  1  1  0  0  0
M  END

> <ChembankId>
3189439

> <SMILES>
CC(C)CCCCC(=O)N[C@H](CCN)C(=O)N[C@@H]([C@@H](C)O)C(=O)N[C@H](CCN)C(=O)N[C@@H]1CCNC(=O)[C@@H](NC(=O)[C@H](CCN)NC(=O)[C@H](CCN)NC(=O)[C@@H](CNC(=O)[C@@H](CC(C)C)NC(=O)[C@H](CCN)NC1=O)C(C)C)[C@@H](C)O

> <InChI>
1/C52H98N16O13/c1-27(2)11-9-10-12-40(71)60-33(13-19-53)49(78)68-42(31(8)70)52(81)65-36(16-22-56)46(75)64-38-18-24-58-51(80)41(30(7)69)67-50(79)37(17-23-57)63-45(74)34(14-20-54)61-43(72)32(29(5)6)26-59-44(73)39(25-28(3)4)66-47(76)35(15-21-55)62-48(38)77/h27-39,41-42,69-70H,9-26,53-57H2,1-8H3,(H,58,80)(H,59,73)(H,60,71)(H,61,72)(H,62,77)(H,63,74)(H,64,75)(H,65,81)(H,66,76)(H,67,79)(H,68,78)

$$$$
2911
  Marvin  11101114192D          

 21 23  0  0  0  0            999 V2000
    2.3747    3.6320    0.0000 C   0  0  0  0  0  0  0  0  0  0  0  0
    2.3747    2.8070    0.0000 N   0  0  0  0  0  0  0  0  0  0  0  0
    1.6603    2.3945    0.0000 C   0  0  0  0  0  0  0  0  0  0  0  0
    3.0892    2.3945    0.0000 C   0  0  0  0  0  0  0  0  0  0  0  0
    3.0892    1.5695    0.0000 C   0  0  0  0  0  0  0  0  0  0  0  0
    3.8037    1.1570    0.0000 C   0  0  0  0  0  0  0  0  0  0  0  0
    3.8037    0.3320    0.0000 C   0  0  0  0  0  0  0  0  0  0  0  0
    4.5470   -0.0260    0.0000 C   0  0  0  0  0  0  0  0  0  0  0  0
    5.1517    0.5352    0.0000 C   0  0  0  0  0  0  0  0  0  0  0  0
    5.9401    0.2920    0.0000 C   0  0  0  0  0  0  0  0  0  0  0  0
    6.1237   -0.5123    0.0000 C   0  0  0  0  0  0  0  0  0  0  0  0
    5.5189   -1.0735    0.0000 C   0  0  0  0  0  0  0  0  0  0  0  0
    4.7305   -0.8303    0.0000 C   0  0  0  0  0  0  0  0  0  0  0  0
    4.2162   -1.4753    0.0000 C   0  0  0  0  0  0  0  0  0  0  0  0
    3.3912   -1.4753    0.0000 S   0  0  0  0  0  0  0  0  0  0  0  0
    2.8768   -0.8303    0.0000 C   0  0  0  0  0  0  0  0  0  0  0  0
    2.0884   -1.0735    0.0000 C   0  0  0  0  0  0  0  0  0  0  0  0
    1.4837   -0.5123    0.0000 C   0  0  0  0  0  0  0  0  0  0  0  0
    1.6673    0.2920    0.0000 C   0  0  0  0  0  0  0  0  0  0  0  0
    2.4556    0.5352    0.0000 C   0  0  0  0  0  0  0  0  0  0  0  0
    3.0604   -0.0260    0.0000 C   0  0  0  0  0  0  0  0  0  0  0  0
  1  2  1  0  0  0  0
  2  3  1  0  0  0  0
  2  4  1  0  0  0  0
  4  5  1  0  0  0  0
  5  6  1  0  0  0  0
  6  7  2  0  0  0  0
  7  8  1  0  0  0  0
  8  9  4  0  0  0  0
  9 10  4  0  0  0  0
 10 11  4  0  0  0  0
 11 12  4  0  0  0  0
 12 13  4  0  0  0  0
  8 13  4  0  0  0  0
 13 14  1  0  0  0  0
 14 15  1  0  0  0  0
 15 16  1  0  0  0  0
 16 17  4  0  0  0  0
 17 18  4  0  0  0  0
 18 19  4  0  0  0  0
 19 20  4  0  0  0  0
 20 21  4  0  0  0  0
  7 21  1  0  0  0  0
 16 21  4  0  0  0  0
M  END

> <ChembankId>
2911

> <SMILES>
CN(C)CC/C=C\1/c2ccccc2CSc3ccccc13

> <InChI>
1/C19H21NS/c1-20(2)13-7-11-17-16-9-4-3-8-15(16)14-21-19-12-6-5-10-18(17)19/h3-6,8-12H,7,13-14H2,1-2H3/b17-11-

$$$$
1782
  Marvin  11101114192D          

 24 26  0  0  0  0            999 V2000
    4.7812    1.9354    0.0000 C   0  0  0  0  0  0  0  0  0  0  0  0
    4.0668    2.3479    0.0000 O   0  0  0  0  0  0  0  0  0  0  0  0
    3.3523    1.9354    0.0000 C   0  0  0  0  0  0  0  0  0  0  0  0
    3.3523    1.1104    0.0000 C   0  0  0  0  0  0  0  0  0  0  0  0
    2.6378    0.6979    0.0000 C   0  0  0  0  0  0  0  0  0  0  0  0
    1.9233    1.1104    0.0000 C   0  0  0  0  0  0  0  0  0  0  0  0
    1.1387    0.8555    0.0000 N   0  0  0  0  0  0  0  0  0  0  0  0
    0.6538    1.5229    0.0000 C   0  0  0  0  0  0  0  0  0  0  0  0
    1.1387    2.1904    0.0000 N   0  0  0  0  0  0  0  0  0  0  0  0
    1.9233    1.9354    0.0000 C   0  0  0  0  0  0  0  0  0  0  0  0
    2.6378    2.3479    0.0000 C   0  0  0  0  0  0  0  0  0  0  0  0
   -0.1712    1.5229    0.0000 S   0  0  0  0  0  0  0  0  0  0  0  0
   -0.5837    2.2374    0.0000 O   0  0  0  0  0  0  0  0  0  0  0  0
   -0.5837    0.8085    0.0000 C   0  0  0  0  0  0  0  0  0  0  0  0
   -1.4087    0.8085    0.0000 C   0  0  0  0  0  0  0  0  0  0  0  0
   -1.8212    0.0940    0.0000 N   0  0  0  0  0  0  0  0  0  0  0  0
   -2.6462    0.0940    0.0000 C   0  0  0  0  0  0  0  0  0  0  0  0
   -3.0587    0.8085    0.0000 C   0  0  0  0  0  0  0  0  0  0  0  0
   -3.8837    0.8085    0.0000 C   0  0  0  0  0  0  0  0  0  0  0  0
   -2.6462    1.5229    0.0000 C   0  0  0  0  0  0  0  0  0  0  0  0
   -3.0587    2.2374    0.0000 O   0  0  0  0  0  0  0  0  0  0  0  0
   -2.6462    2.9519    0.0000 C   0  0  0  0  0  0  0  0  0  0  0  0
   -1.8212    1.5229    0.0000 C   0  0  0  0  0  0  0  0  0  0  0  0
   -1.4087    2.2374    0.0000 C   0  0  0  0  0  0  0  0  0  0  0  0
  1  2  1  0  0  0  0
  2  3  1  0  0  0  0
  3  4  4  0  0  0  0
  4  5  4  0  0  0  0
  5  6  4  0  0  0  0
  6  7  4  0  0  0  0
  7  8  4  0  0  0  0
  8  9  4  0  0  0  0
  9 10  4  0  0  0  0
  6 10  4  0  0  0  0
 10 11  4  0  0  0  0
  3 11  4  0  0  0  0
  8 12  1  0  0  0  0
 12 13  2  0  0  0  0
 12 14  1  0  0  0  0
 14 15  1  0  0  0  0
 15 16  4  0  0  0  0
 16 17  4  0  0  0  0
 17 18  4  0  0  0  0
 18 19  1  0  0  0  0
 18 20  4  0  0  0  0
 20 21  1  0  0  0  0
 21 22  1  0  0  0  0
 20 23  4  0  0  0  0
 15 23  4  0  0  0  0
 23 24  1  0  0  0  0
M  STY  1   1 DAT
M  SAL   1  1   7
M  SDT   1 MRV_IMPLICIT_H                                        
M  SDD   1     0.0000    0.0000    DR    ALL  0       0  
M  SED   1 IMPL_H1
M  END

> <ChembankId>
1782

> <SMILES>
COc1ccc2[nH]c(nc2c1)S(=O)Cc3ncc(C)c(OC)c3C

> <InChI>
1/C17H19N3O3S/c1-10-8-18-15(11(2)16(10)23-4)9-24(21)17-19-13-6-5-12(22-3)7-14(13)20-17/h5-8H,9H2,1-4H3,(H,19,20)

$$$$
3487464
  Marvin  11101114192D          

 18 19  0  0  0  0            999 V2000
    1.3222   -0.0616    0.0000 C   0  0  0  0  0  0  0  0  0  0  0  0
    2.0367   -0.4741    0.0000 C   0  0  0  0  0  0  0  0  0  0  0  0
    2.7512   -0.0616    0.0000 C   0  0  0  0  0  0  0  0  0  0  0  0
    2.7512    0.7634    0.0000 O   0  0  0  0  0  0  0  0  0  0  0  0
    3.4656   -0.4741    0.0000 O   0  0  0  0  0  0  0  0  0  0  0  0
    2.0367   -1.2991    0.0000 C   0  0  0  0  0  0  0  0  0  0  0  0
    2.7041   -1.7840    0.0000 C   0  0  0  0  0  0  0  0  0  0  0  0
    2.4492   -2.5687    0.0000 C   0  0  0  0  0  0  0  0  0  0  0  0
    1.6242   -2.5687    0.0000 C   0  0  0  0  0  0  0  0  0  0  0  0
    1.3693   -1.7840    0.0000 S   0  0  0  0  0  0  0  0  0  0  0  0
    1.1393   -3.2361    0.0000 C   0  0  0  0  0  0  0  0  0  0  0  0
    1.4748   -3.9898    0.0000 O   0  0  0  0  0  0  0  0  0  0  0  0
    0.3188   -3.1499    0.0000 C   0  0  0  0  0  0  0  0  0  0  0  0
   -0.1661   -3.8173    0.0000 C   0  0  0  0  0  0  0  0  0  0  0  0
   -0.9866   -3.7311    0.0000 C   0  0  0  0  0  0  0  0  0  0  0  0
   -1.3222   -2.9774    0.0000 C   0  0  0  0  0  0  0  0  0  0  0  0
   -0.8372   -2.3099    0.0000 C   0  0  0  0  0  0  0  0  0  0  0  0
   -0.0168   -2.3962    0.0000 C   0  0  0  0  0  0  0  0  0  0  0  0
  1  2  1  0  0  0  0
  2  3  1  0  0  0  0
  3  4  2  0  0  0  0
  3  5  1  0  0  0  0
  2  6  1  0  0  0  0
  6  7  4  0  0  0  0
  7  8  4  0  0  0  0
  8  9  4  0  0  0  0
  9 10  4  0  0  0  0
  6 10  4  0  0  0  0
  9 11  1  0  0  0  0
 11 12  2  0  0  0  0
 11 13  1  0  0  0  0
 13 14  4  0  0  0  0
 14 15  4  0  0  0  0
 15 16  4  0  0  0  0
 16 17  4  0  0  0  0
 17 18  4  0  0  0  0
 13 18  4  0  0  0  0
M  END

> <ChembankId>
3487464

> <SMILES>
CC(C(=O)O)c1ccc(s1)C(=O)c2ccccc2

> <InChI>
1/C14H12O3S/c1-9(14(16)17)11-7-8-12(18-11)13(15)10-5-3-2-4-6-10/h2-9H,1H3,(H,16,17)

$$$$
3189442
  Marvin  11101114192D          

 23 23  0  0  0  0            999 V2000
    0.4125   -3.7934    0.0000 C   0  0  0  0  0  0  0  0  0  0  0  0
    0.0000   -3.0789    0.0000 C   0  0  0  0  0  0  0  0  0  0  0  0
   -0.8250   -3.0789    0.0000 C   0  0  0  0  0  0  0  0  0  0  0  0
   -1.2375   -3.7934    0.0000 C   0  0  0  0  0  0  0  0  0  0  0  0
   -2.0625   -3.7934    0.0000 C   0  0  0  0  0  0  0  0  0  0  0  0
   -2.4750   -3.0789    0.0000 C   0  0  0  0  0  0  0  0  0  0  0  0
   -2.0625   -2.3645    0.0000 C   0  0  0  0  0  0  0  0  0  0  0  0
   -2.4750   -1.6500    0.0000 C   0  0  0  0  0  0  0  0  0  0  0  0
   -2.0625   -0.9355    0.0000 C   0  0  0  0  0  0  0  0  0  0  0  0
   -1.2375   -2.3645    0.0000 C   0  0  0  0  0  0  0  0  0  0  0  0
   -0.8250   -1.6500    0.0000 N   0  0  0  0  0  0  0  0  0  0  0  0
    0.0000   -1.6500    0.0000 C   0  0  0  0  0  0  0  0  0  0  0  0
    0.4125   -2.3645    0.0000 O   0  0  0  0  0  0  0  0  0  0  0  0
    0.4125   -0.9355    0.0000 C   0  0  0  0  0  0  0  0  0  0  0  0
    1.2375   -0.9355    0.0000 N   0  0  0  0  0  0  0  0  0  0  0  0
    1.6500   -0.2211    0.0000 C   0  0  0  0  0  0  0  0  0  0  0  0
    1.2375    0.4934    0.0000 C   0  0  0  0  0  0  0  0  0  0  0  0
    1.6500    1.2079    0.0000 O   0  0  0  0  0  0  0  0  0  0  0  0
    0.4125    0.4934    0.0000 O   0  0  0  0  0  0  0  0  0  0  0  0
    1.6500   -1.6500    0.0000 C   0  0  0  0  0  0  0  0  0  0  0  0
    2.4750   -1.6500    0.0000 C   0  0  0  0  0  0  0  0  0  0  0  0
    2.8875   -0.9355    0.0000 O   0  0  0  0  0  0  0  0  0  0  0  0
    2.8875   -2.3645    0.0000 O   0  0  0  0  0  0  0  0  0  0  0  0
  1  2  1  0  0  0  0
  2  3  1  0  0  0  0
  3  4  4  0  0  0  0
  4  5  4  0  0  0  0
  5  6  4  0  0  0  0
  6  7  4  0  0  0  0
  7  8  1  0  0  0  0
  8  9  1  0  0  0  0
  7 10  4  0  0  0  0
  3 10  4  0  0  0  0
 10 11  1  0  0  0  0
 11 12  1  0  0  0  0
 12 13  2  0  0  0  0
 12 14  1  0  0  0  0
 14 15  1  0  0  0  0
 15 16  1  0  0  0  0
 16 17  1  0  0  0  0
 17 18  2  0  0  0  0
 17 19  1  0  0  0  0
 15 20  1  0  0  0  0
 20 21  1  0  0  0  0
 21 22  2  0  0  0  0
 21 23  1  0  0  0  0
M  END

> <ChembankId>
3189442

> <SMILES>
CCc1cccc(CC)c1NC(=O)CN(CC(=O)O)CC(=O)O

> <InChI>
1/C16H22N2O5/c1-3-11-6-5-7-12(4-2)16(11)17-13(19)8-18(9-14(20)21)10-15(22)23/h5-7H,3-4,8-10H2,1-2H3,(H,17,19)(H,20,21)(H,22,23)

$$$$
2922
  Marvin  11101114192D          

 26 28  0  0  0  0            999 V2000
   -1.1168   -5.5090    0.0000 O   0  0  0  0  0  0  0  0  0  0  0  0
   -0.8347   -4.7337    0.0000 C   0  0  0  0  0  0  0  0  0  0  0  0
   -0.8347   -3.9087    0.0000 C   0  0  0  0  0  0  0  0  0  0  0  0
   -0.1202   -3.4962    0.0000 C   0  0  0  0  0  0  0  0  0  0  0  0
    0.5943   -3.9087    0.0000 N   0  0  0  0  0  0  0  0  0  0  0  0
    1.3087   -3.4962    0.0000 C   0  0  0  0  0  0  0  0  0  0  0  0
    2.0232   -3.9087    0.0000 C   0  0  0  0  0  0  0  0  0  0  0  0
    2.7377   -3.4962    0.0000 C   0  0  0  0  0  0  0  0  0  0  0  0
    3.4521   -3.9087    0.0000 C   0  0  0  0  0  0  0  0  0  0  0  0
    3.4521   -4.7337    0.0000 O   0  0  0  0  0  0  0  0  0  0  0  0
    4.1666   -3.4962    0.0000 C   0  0  0  0  0  0  0  0  0  0  0  0
    4.1666   -2.6712    0.0000 C   0  0  0  0  0  0  0  0  0  0  0  0
    4.8811   -2.2587    0.0000 C   0  0  0  0  0  0  0  0  0  0  0  0
    5.5956   -2.6712    0.0000 C   0  0  0  0  0  0  0  0  0  0  0  0
    6.3100   -2.2587    0.0000 F   0  0  0  0  0  0  0  0  0  0  0  0
    5.5956   -3.4962    0.0000 C   0  0  0  0  0  0  0  0  0  0  0  0
    4.8811   -3.9087    0.0000 C   0  0  0  0  0  0  0  0  0  0  0  0
    0.5943   -4.7337    0.0000 C   0  0  0  0  0  0  0  0  0  0  0  0
   -0.1202   -5.1462    0.0000 C   0  0  0  0  0  0  0  0  0  0  0  0
   -1.6471   -4.5904    0.0000 C   0  0  0  0  0  0  0  0  0  0  0  0
   -2.1774   -5.2224    0.0000 C   0  0  0  0  0  0  0  0  0  0  0  0
   -2.9899   -5.0792    0.0000 C   0  0  0  0  0  0  0  0  0  0  0  0
   -3.2721   -4.3039    0.0000 C   0  0  0  0  0  0  0  0  0  0  0  0
   -4.0845   -4.1607    0.0000 Br  0  0  0  0  0  0  0  0  0  0  0  0
   -2.7418   -3.6719    0.0000 C   0  0  0  0  0  0  0  0  0  0  0  0
   -1.9293   -3.8152    0.0000 C   0  0  0  0  0  0  0  0  0  0  0  0
  1  2  1  0  0  0  0
  2  3  1  0  0  0  0
  3  4  1  0  0  0  0
  4  5  1  0  0  0  0
  5  6  1  0  0  0  0
  6  7  1  0  0  0  0
  7  8  1  0  0  0  0
  8  9  1  0  0  0  0
  9 10  2  0  0  0  0
  9 11  1  0  0  0  0
 11 12  4  0  0  0  0
 12 13  4  0  0  0  0
 13 14  4  0  0  0  0
 14 15  1  0  0  0  0
 14 16  4  0  0  0  0
 16 17  4  0  0  0  0
 11 17  4  0  0  0  0
  5 18  1  0  0  0  0
 18 19  1  0  0  0  0
  2 19  1  0  0  0  0
  2 20  1  0  0  0  0
 20 21  4  0  0  0  0
 21 22  4  0  0  0  0
 22 23  4  0  0  0  0
 23 24  1  0  0  0  0
 23 25  4  0  0  0  0
 25 26  4  0  0  0  0
 20 26  4  0  0  0  0
M  END

> <ChembankId>
2922

> <SMILES>
OC1(CCN(CCCC(=O)c2ccc(F)cc2)CC1)c3ccc(Br)cc3

> <InChI>
1/C21H23BrFNO2/c22-18-7-5-17(6-8-18)21(26)11-14-24(15-12-21)13-1-2-20(25)16-3-9-19(23)10-4-16/h3-10,26H,1-2,11-15H2

$$$$
3068692
  Marvin  11101114192D          

 20 22  0  0  0  0            999 V2000
    2.3747    3.6320    0.0000 C   0  0  0  0  0  0  0  0  0  0  0  0
    2.3747    2.8070    0.0000 N   0  0  0  0  0  0  0  0  0  0  0  0
    3.0892    2.3945    0.0000 C   0  0  0  0  0  0  0  0  0  0  0  0
    3.0892    1.5695    0.0000 C   0  0  0  0  0  0  0  0  0  0  0  0
    3.8037    1.1570    0.0000 C   0  0  0  0  0  0  0  0  0  0  0  0
    3.8037    0.3320    0.0000 C   0  0  0  0  0  0  0  0  0  0  0  0
    4.5470   -0.0260    0.0000 C   0  0  0  0  0  0  0  0  0  0  0  0
    5.1517    0.5352    0.0000 C   0  0  0  0  0  0  0  0  0  0  0  0
    5.9401    0.2920    0.0000 C   0  0  0  0  0  0  0  0  0  0  0  0
    6.1237   -0.5123    0.0000 C   0  0  0  0  0  0  0  0  0  0  0  0
    5.5189   -1.0735    0.0000 C   0  0  0  0  0  0  0  0  0  0  0  0
    4.7305   -0.8303    0.0000 C   0  0  0  0  0  0  0  0  0  0  0  0
    4.2162   -1.4753    0.0000 C   0  0  0  0  0  0  0  0  0  0  0  0
    3.3912   -1.4753    0.0000 C   0  0  0  0  0  0  0  0  0  0  0  0
    2.8768   -0.8303    0.0000 C   0  0  0  0  0  0  0  0  0  0  0  0
    2.0884   -1.0735    0.0000 C   0  0  0  0  0  0  0  0  0  0  0  0
    1.4837   -0.5123    0.0000 C   0  0  0  0  0  0  0  0  0  0  0  0
    1.6673    0.2920    0.0000 C   0  0  0  0  0  0  0  0  0  0  0  0
    2.4556    0.5352    0.0000 C   0  0  0  0  0  0  0  0  0  0  0  0
    3.0604   -0.0260    0.0000 C   0  0  0  0  0  0  0  0  0  0  0  0
  1  2  1  0  0  0  0
  2  3  1  0  0  0  0
  3  4  1  0  0  0  0
  4  5  1  0  0  0  0
  5  6  2  0  0  0  0
  6  7  1  0  0  0  0
  7  8  4  0  0  0  0
  8  9  4  0  0  0  0
  9 10  4  0  0  0  0
 10 11  4  0  0  0  0
 11 12  4  0  0  0  0
  7 12  4  0  0  0  0
 12 13  1  0  0  0  0
 13 14  2  0  0  0  0
 14 15  1  0  0  0  0
 15 16  4  0  0  0  0
 16 17  4  0  0  0  0
 17 18  4  0  0  0  0
 18 19  4  0  0  0  0
 19 20  4  0  0  0  0
  6 20  1  0  0  0  0
 15 20  4  0  0  0  0
M  END

> <ChembankId>
3068692

> <SMILES>
CNCCC=C1c2ccccc2C=Cc3ccccc13

> <InChI>
1/C19H19N/c1-20-14-6-11-19-17-9-4-2-7-15(17)12-13-16-8-3-5-10-18(16)19/h2-5,7-13,20H,6,14H2,1H3

$$$$
2900
  Marvin  11101114192D          

 10 10  0  0  0  0            999 V2000
    1.4652   -0.8227    0.0000 C   0  0  0  0  0  0  0  0  0  0  0  0
    0.9803   -0.1553    0.0000 N   0  0  0  0  0  0  0  0  0  0  0  0
    0.1553   -0.1553    0.0000 C   0  0  0  0  0  0  0  0  0  0  0  0
   -0.3297   -0.8227    0.0000 O   0  0  0  0  0  0  0  0  0  0  0  0
   -0.0997    0.6294    0.0000 O   0  0  0  0  0  0  0  0  0  0  0  0
    0.5678    1.1143    0.0000 C   0  0  0  0  0  0  0  0  0  0  0  0
    0.0157    1.7274    0.0000 C   0  0  0  0  0  0  0  0  0  0  0  0
    1.1198    1.7274    0.0000 C   0  0  0  0  0  0  0  0  0  0  0  0
    1.2352    0.6294    0.0000 C   0  0  0  0  0  0  0  0  0  0  0  0
    2.0198    0.8843    0.0000 O   0  0  0  0  0  0  0  0  0  0  0  0
  1  2  1  0  0  0  0
  2  3  1  0  0  0  0
  3  4  2  0  0  0  0
  3  5  1  0  0  0  0
  5  6  1  0  0  0  0
  6  7  1  0  0  0  0
  6  8  1  0  0  0  0
  6  9  1  0  0  0  0
  2  9  1  0  0  0  0
  9 10  2  0  0  0  0
M  END

> <ChembankId>
2900

> <SMILES>
CN1C(=O)OC(C)(C)C1=O

> <InChI>
1/C6H9NO3/c1-6(2)4(8)7(3)5(9)10-6/h1-3H3

$$$$
821975
  Marvin  11101114192D          

 33 36  0  0  1  0            999 V2000
    4.9924   -0.7930    0.0000 C   0  0  0  0  0  0  0  0  0  0  0  0
    4.9924   -1.6180    0.0000 C   0  0  2  0  0  0  0  0  0  0  0  0
    5.7069   -2.0305    0.0000 C   0  0  0  0  0  0  0  0  0  0  0  0
    6.4214   -1.6180    0.0000 C   0  0  0  0  0  0  0  0  0  0  0  0
    7.1358   -2.0305    0.0000 C   0  0  0  0  0  0  0  0  0  0  0  0
    7.1358   -2.8555    0.0000 O   0  0  0  0  0  0  0  0  0  0  0  0
    7.8503   -1.6180    0.0000 N   0  0  0  0  0  0  0  0  0  0  0  0
    8.5648   -2.0305    0.0000 C   0  0  0  0  0  0  0  0  0  0  0  0
    9.2792   -1.6180    0.0000 C   0  0  0  0  0  0  0  0  0  0  0  0
    9.9937   -2.0305    0.0000 O   0  0  0  0  0  0  0  0  0  0  0  0
    9.2792   -0.7930    0.0000 O   0  0  0  0  0  0  0  0  0  0  0  0
    4.2780   -2.0305    0.0000 C   0  0  1  0  0  0  0  0  0  0  0  0
    4.1917   -2.8510    0.0000 C   0  0  0  0  0  0  0  0  0  0  0  0
    3.3847   -3.0225    0.0000 C   0  0  0  0  0  0  0  0  0  0  0  0
    2.9722   -2.3080    0.0000 C   0  0  1  0  0  0  0  0  0  0  0  0
    2.1653   -2.1365    0.0000 C   0  0  0  0  0  0  0  0  0  0  0  0
    1.6132   -2.7496    0.0000 C   0  0  2  0  0  0  0  0  0  0  0  0
    1.8682   -3.5342    0.0000 O   0  0  0  0  0  0  0  0  0  0  0  0
    0.8063   -2.5781    0.0000 C   0  0  0  0  0  0  0  0  0  0  0  0
    0.5513   -1.7935    0.0000 C   0  0  2  0  0  0  0  0  0  0  0  0
   -0.2556   -1.6219    0.0000 C   0  0  0  0  0  0  0  0  0  0  0  0
   -0.5106   -0.8373    0.0000 C   0  0  2  0  0  0  0  0  0  0  0  0
   -1.3176   -0.6658    0.0000 O   0  0  0  0  0  0  0  0  0  0  0  0
    0.0414   -0.2242    0.0000 C   0  0  0  0  0  0  0  0  0  0  0  0
    0.8484   -0.3957    0.0000 C   0  0  0  0  0  0  0  0  0  0  0  0
    1.1034   -1.1804    0.0000 C   0  0  1  0  0  0  0  0  0  0  0  0
    1.6554   -0.5673    0.0000 C   0  0  0  0  0  0  0  0  0  0  0  0
    1.9103   -1.3519    0.0000 C   0  0  1  0  0  0  0  0  0  0  0  0
    2.4624   -0.7388    0.0000 C   0  0  0  0  0  0  0  0  0  0  0  0
    3.2693   -0.9103    0.0000 C   0  0  2  0  0  0  0  0  0  0  0  0
    3.8214   -0.2972    0.0000 O   0  0  0  0  0  0  0  0  0  0  0  0
    3.5243   -1.6949    0.0000 C   0  0  2  0  0  0  0  0  0  0  0  0
    4.1374   -1.1429    0.0000 C   0  0  0  0  0  0  0  0  0  0  0  0
  2  1  1  6  0  0  0
  2  3  1  0  0  0  0
  3  4  1  0  0  0  0
  4  5  1  0  0  0  0
  5  6  2  0  0  0  0
  5  7  1  0  0  0  0
  7  8  1  0  0  0  0
  8  9  1  0  0  0  0
  9 10  2  0  0  0  0
  9 11  1  0  0  0  0
 12  2  1  1  0  0  0
 12 13  1  0  0  0  0
 13 14  1  0  0  0  0
 15 14  1  1  0  0  0
 15 16  1  0  0  0  0
 16 17  1  0  0  0  0
 17 18  1  6  0  0  0
 17 19  1  0  0  0  0
 20 19  1  6  0  0  0
 20 21  1  0  0  0  0
 21 22  1  0  0  0  0
 22 23  1  6  0  0  0
 22 24  1  0  0  0  0
 24 25  1  0  0  0  0
 25 26  1  0  0  0  0
 20 26  1  0  0  0  0
 26 27  1  1  0  0  0
 26 28  1  0  0  0  0
 16 28  1  0  0  0  0
 28 29  1  1  0  0  0
 29 30  1  0  0  0  0
 30 31  1  6  0  0  0
 30 32  1  0  0  0  0
 12 32  1  0  0  0  0
 15 32  1  0  0  0  0
 32 33  1  1  0  0  0
M  END

> <ChembankId>
821975

> <SMILES>
C[C@H](CCC(=O)NCC(=O)O)[C@H]1CC[C@H]2[C@@H]3[C@H](O)C[C@@H]4C[C@H](O)CC[C@]4(C)[C@H]3C[C@H](O)[C@]12C

> <InChI>
1/C26H43NO6/c1-14(4-7-22(31)27-13-23(32)33)17-5-6-18-24-19(12-21(30)26(17,18)3)25(2)9-8-16(28)10-15(25)11-20(24)29/h14-21,24,28-30H,4-13H2,1-3H3,(H,27,31)(H,32,33)

$$$$
3068727
  Marvin  11101114192D          

 11 10  0  0  1  0            999 V2000
    1.7605    1.0164    0.0000 C   0  0  0  0  0  0  0  0  0  0  0  0
    2.4750    1.4289    0.0000 S   0  3  0  0  0  0  0  0  0  0  0  0
    2.8875    0.7145    0.0000 N   0  0  0  0  0  0  0  0  0  0  0  0
    2.0625    2.1434    0.0000 O   0  5  0  0  0  0  0  0  0  0  0  0
    3.1895    1.8414    0.0000 C   0  0  0  0  0  0  0  0  0  0  0  0
    3.9039    1.4289    0.0000 C   0  0  0  0  0  0  0  0  0  0  0  0
    4.6184    1.8414    0.0000 C   0  0  2  0  0  0  0  0  0  0  0  0
    4.6184    2.6664    0.0000 N   0  0  0  0  0  0  0  0  0  0  0  0
    5.3329    1.4289    0.0000 C   0  0  0  0  0  0  0  0  0  0  0  0
    6.0474    1.8414    0.0000 O   0  0  0  0  0  0  0  0  0  0  0  0
    5.3329    0.6039    0.0000 O   0  0  0  0  0  0  0  0  0  0  0  0
  1  2  1  0  0  0  0
  2  3  2  0  0  0  0
  2  4  1  0  0  0  0
  2  5  1  0  0  0  0
  5  6  1  0  0  0  0
  6  7  1  0  0  0  0
  7  8  1  6  0  0  0
  7  9  1  0  0  0  0
  9 10  2  0  0  0  0
  9 11  1  0  0  0  0
M  CHG  2   2   1   4  -1
M  END

> <ChembankId>
3068727

> <SMILES>
C[S+](=N)([O-])CC[C@H](N)C(=O)O

> <InChI>
1/C5H12N2O3S/c1-11(7,10)3-2-4(6)5(8)9/h4H,2-3,6H2,1H3,(H2-,7,8,9,10)/t4-,11-/m0/s1

$$$$
3068731
  Marvin  11101114192D          

 17 17  0  0  0  0            999 V2000
    3.5724    1.2375    0.0000 C   0  0  0  0  0  0  0  0  0  0  0  0
    2.8579    0.8250    0.0000 C   0  0  0  0  0  0  0  0  0  0  0  0
    2.8579   -0.0000    0.0000 O   0  0  0  0  0  0  0  0  0  0  0  0
    2.1434    1.2375    0.0000 O   0  0  0  0  0  0  0  0  0  0  0  0
    1.4289    0.8250    0.0000 C   0  0  0  0  0  0  0  0  0  0  0  0
    1.4289   -0.0000    0.0000 C   0  0  0  0  0  0  0  0  0  0  0  0
    0.7145   -0.4125    0.0000 C   0  0  0  0  0  0  0  0  0  0  0  0
    0.0000    0.0000    0.0000 C   0  0  0  0  0  0  0  0  0  0  0  0
    0.0000    0.8250    0.0000 C   0  0  0  0  0  0  0  0  0  0  0  0
    0.7145    1.2375    0.0000 C   0  0  0  0  0  0  0  0  0  0  0  0
    0.7145    2.0625    0.0000 C   0  0  0  0  0  0  0  0  0  0  0  0
    1.4289    2.4750    0.0000 O   0  0  0  0  0  0  0  0  0  0  0  0
    0.0000    2.4750    0.0000 O   0  0  0  0  0  0  0  0  0  0  0  0
    0.7145   -1.2375    0.0000 C   0  0  0  0  0  0  0  0  0  0  0  0
    0.7145   -2.0625    0.0000 F   0  0  0  0  0  0  0  0  0  0  0  0
   -0.1105   -1.2375    0.0000 F   0  0  0  0  0  0  0  0  0  0  0  0
    1.5395   -1.2375    0.0000 F   0  0  0  0  0  0  0  0  0  0  0  0
  1  2  1  0  0  0  0
  2  3  2  0  0  0  0
  2  4  1  0  0  0  0
  4  5  1  0  0  0  0
  5  6  4  0  0  0  0
  6  7  4  0  0  0  0
  7  8  4  0  0  0  0
  8  9  4  0  0  0  0
  9 10  4  0  0  0  0
  5 10  4  0  0  0  0
 10 11  1  0  0  0  0
 11 12  2  0  0  0  0
 11 13  1  0  0  0  0
  7 14  1  0  0  0  0
 14 15  1  0  0  0  0
 14 16  1  0  0  0  0
 14 17  1  0  0  0  0
M  END

> <ChembankId>
3068731

> <SMILES>
CC(=O)Oc1cc(ccc1C(=O)O)C(F)(F)F

> <InChI>
1/C10H7F3O4/c1-5(14)17-8-4-6(10(11,12)13)2-3-7(8)9(15)16/h2-4H,1H3,(H,15,16)

$$$$
3189446
  Marvin  11101114192D          

 39 42  0  0  1  0            999 V2000
    2.7956   -3.4404    0.0000 C   0  0  0  0  0  0  0  0  0  0  0  0
    2.2593   -2.8135    0.0000 O   0  0  0  0  0  0  0  0  0  0  0  0
    2.5341   -2.0356    0.0000 C   0  0  0  0  0  0  0  0  0  0  0  0
    1.9977   -1.4087    0.0000 C   0  0  0  0  0  0  0  0  0  0  0  0
    1.1867   -1.5597    0.0000 O   0  0  0  0  0  0  0  0  0  0  0  0
    0.9119   -2.3376    0.0000 C   0  0  2  0  0  0  0  0  0  0  0  0
    1.4483   -2.9645    0.0000 O   0  0  0  0  0  0  0  0  0  0  0  0
    1.1735   -3.7424    0.0000 C   0  0  2  0  0  0  0  0  0  0  0  0
    1.7098   -4.3693    0.0000 C   0  0  0  0  0  0  0  0  0  0  0  0
    1.4351   -5.1472    0.0000 O   0  0  0  0  0  0  0  0  0  0  0  0
    0.3625   -3.8934    0.0000 C   0  0  1  0  0  0  0  0  0  0  0  0
    0.0877   -4.6713    0.0000 O   0  0  0  0  0  0  0  0  0  0  0  0
   -0.1739   -3.2665    0.0000 C   0  0  2  0  0  0  0  0  0  0  0  0
   -0.9849   -3.4176    0.0000 O   0  0  0  0  0  0  0  0  0  0  0  0
    0.1009   -2.4886    0.0000 C   0  0  1  0  0  0  0  0  0  0  0  0
   -0.4354   -1.8617    0.0000 O   0  0  0  0  0  0  0  0  0  0  0  0
    2.2725   -0.6308    0.0000 C   0  0  0  0  0  0  0  0  0  0  0  0
    3.0836   -0.4798    0.0000 C   0  0  0  0  0  0  0  0  0  0  0  0
    3.2393    0.3304    0.0000 C   0  0  0  0  0  0  0  0  0  0  0  0
    3.9698    0.7138    0.0000 C   0  0  0  0  0  0  0  0  0  0  0  0
    4.7250    0.3817    0.0000 C   0  0  0  0  0  0  0  0  0  0  0  0
    5.3519    0.9180    0.0000 N   0  0  0  0  0  0  0  0  0  0  0  0
    5.2009    1.7290    0.0000 C   0  0  0  0  0  0  0  0  0  0  0  0
    4.4230    2.0038    0.0000 O   0  0  0  0  0  0  0  0  0  0  0  0
    5.8278    2.2654    0.0000 C   0  0  0  0  0  0  0  0  0  0  0  0
    4.9362   -0.4158    0.0000 C   0  0  0  0  0  0  0  0  0  0  0  0
    5.7607   -0.3874    0.0000 C   0  0  0  0  0  0  0  0  0  0  0  0
    6.2970   -1.0143    0.0000 C   0  0  0  0  0  0  0  0  0  0  0  0
    7.0945   -0.8031    0.0000 O   0  0  0  0  0  0  0  0  0  0  0  0
    6.1413   -1.8245    0.0000 C   0  0  0  0  0  0  0  0  0  0  0  0
    6.8037   -2.3163    0.0000 S   0  0  0  0  0  0  0  0  0  0  0  0
    7.5608   -1.9886    0.0000 C   0  0  0  0  0  0  0  0  0  0  0  0
    5.4108   -2.2078    0.0000 C   0  0  0  0  0  0  0  0  0  0  0  0
    4.6556   -1.8757    0.0000 C   0  0  0  0  0  0  0  0  0  0  0  0
    4.4444   -1.0782    0.0000 C   0  0  0  0  0  0  0  0  0  0  0  0
    3.6199   -1.1067    0.0000 C   0  0  0  0  0  0  0  0  0  0  0  0
    3.3451   -1.8846    0.0000 C   0  0  0  0  0  0  0  0  0  0  0  0
    3.8814   -2.5115    0.0000 O   0  0  0  0  0  0  0  0  0  0  0  0
    3.6067   -3.2894    0.0000 C   0  0  0  0  0  0  0  0  0  0  0  0
  1  2  1  0  0  0  0
  2  3  1  0  0  0  0
  3  4  4  0  0  0  0
  4  5  1  0  0  0  0
  6  5  1  6  0  0  0
  6  7  1  0  0  0  0
  7  8  1  0  0  0  0
  8  9  1  6  0  0  0
  9 10  1  0  0  0  0
  8 11  1  0  0  0  0
 11 12  1  1  0  0  0
 11 13  1  0  0  0  0
 13 14  1  6  0  0  0
 13 15  1  0  0  0  0
  6 15  1  0  0  0  0
 15 16  1  1  0  0  0
  4 17  4  0  0  0  0
 17 18  4  0  0  0  0
 18 19  1  0  0  0  0
 19 20  1  0  0  0  0
 20 21  1  0  0  0  0
 21 22  1  0  0  0  0
 22 23  1  0  0  0  0
 23 24  2  0  0  0  0
 23 25  1  0  0  0  0
 21 26  1  0  0  0  0
 26 27  4  0  0  0  0
 27 28  4  0  0  0  0
 28 29  2  0  0  0  0
 28 30  4  0  0  0  0
 30 31  1  0  0  0  0
 31 32  1  0  0  0  0
 30 33  4  0  0  0  0
 33 34  4  0  0  0  0
 34 35  4  0  0  0  0
 26 35  4  0  0  0  0
 35 36  1  0  0  0  0
 18 36  4  0  0  0  0
 36 37  4  0  0  0  0
  3 37  4  0  0  0  0
 37 38  1  0  0  0  0
 38 39  1  0  0  0  0
M  END

> <ChembankId>
3189446

> <SMILES>
COc1c(O[C@@H]2O[C@H](CO)[C@@H](O)[C@H](O)[C@H]2O)cc3CCC(NC(=O)C)c4cc(=O)c(SC)ccc4-c3c1OC

> <InChI>
1/C27H33NO10S/c1-12(30)28-16-7-5-13-9-18(37-27-24(34)23(33)22(32)19(11-29)38-27)25(35-2)26(36-3)21(13)14-6-8-20(39-4)17(31)10-15(14)16/h6,8-10,16,19,22-24,27,29,32-34H,5,7,11H2,1-4H3,(H,28,30)

$$$$
3068774
  Marvin  11101114192D          

 20 20  0  0  0  0            999 V2000
    2.1434    1.2375    0.0000 N   0  0  0  0  0  0  0  0  0  0  0  0
    1.4289    0.8250    0.0000 C   0  0  0  0  0  0  0  0  0  0  0  0
    1.4289   -0.0000    0.0000 C   0  0  0  0  0  0  0  0  0  0  0  0
    0.7145   -0.4125    0.0000 C   0  0  0  0  0  0  0  0  0  0  0  0
    0.7145   -1.2375    0.0000 C   0  0  0  0  0  0  0  0  0  0  0  0
   -0.0000   -1.6500    0.0000 C   0  0  0  0  0  0  0  0  0  0  0  0
   -0.0000   -2.4750    0.0000 Cl  0  0  0  0  0  0  0  0  0  0  0  0
   -0.7145   -1.2375    0.0000 Cl  0  0  0  0  0  0  0  0  0  0  0  0
    1.4289   -1.6500    0.0000 Cl  0  0  0  0  0  0  0  0  0  0  0  0
    0.0000    0.0000    0.0000 C   0  0  0  0  0  0  0  0  0  0  0  0
    0.0000    0.8250    0.0000 C   0  0  0  0  0  0  0  0  0  0  0  0
    0.7145    1.2375    0.0000 C   0  0  0  0  0  0  0  0  0  0  0  0
    0.7145    2.0625    0.0000 S   0  0  0  0  0  0  0  0  0  0  0  0
    0.7145    2.8875    0.0000 O   0  0  0  0  0  0  0  0  0  0  0  0
    1.5395    2.0625    0.0000 O   0  0  0  0  0  0  0  0  0  0  0  0
   -0.1105    2.0625    0.0000 N   0  0  0  0  0  0  0  0  0  0  0  0
   -0.7145   -0.4125    0.0000 S   0  0  0  0  0  0  0  0  0  0  0  0
   -1.4289   -0.8250    0.0000 O   0  0  0  0  0  0  0  0  0  0  0  0
   -1.1270    0.3020    0.0000 O   0  0  0  0  0  0  0  0  0  0  0  0
   -0.3020   -1.1270    0.0000 N   0  0  0  0  0  0  0  0  0  0  0  0
  1  2  1  0  0  0  0
  2  3  4  0  0  0  0
  3  4  4  0  0  0  0
  4  5  1  0  0  0  0
  5  6  2  0  0  0  0
  6  7  1  0  0  0  0
  6  8  1  0  0  0  0
  5  9  1  0  0  0  0
  4 10  4  0  0  0  0
 10 11  4  0  0  0  0
 11 12  4  0  0  0  0
  2 12  4  0  0  0  0
 12 13  1  0  0  0  0
 13 14  2  0  0  0  0
 13 15  2  0  0  0  0
 13 16  1  0  0  0  0
 10 17  1  0  0  0  0
 17 18  2  0  0  0  0
 17 19  2  0  0  0  0
 17 20  1  0  0  0  0
M  END

> <ChembankId>
3068774

> <SMILES>
Nc1cc(C(=C(Cl)Cl)Cl)c(cc1S(=O)(=O)N)S(=O)(=O)N

> <InChI>
1/C8H8Cl3N3O4S2/c9-7(8(10)11)3-1-4(12)6(20(14,17)18)2-5(3)19(13,15)16/h1-2H,12H2,(H2,13,15,16)(H2,14,17,18)

$$$$
1365793
  Marvin  11101114192D          

 19 20  0  0  0  0            999 V2000
    1.4289    0.0000    0.0000 C   0  0  0  0  0  0  0  0  0  0  0  0
    2.1434   -0.4125    0.0000 O   0  0  0  0  0  0  0  0  0  0  0  0
    2.1434   -1.2375    0.0000 C   0  0  0  0  0  0  0  0  0  0  0  0
    2.8579   -1.6500    0.0000 C   0  0  0  0  0  0  0  0  0  0  0  0
    2.8579   -2.4750    0.0000 C   0  0  0  0  0  0  0  0  0  0  0  0
    2.1434   -2.8875    0.0000 C   0  0  0  0  0  0  0  0  0  0  0  0
    2.1434   -3.7125    0.0000 C   0  0  0  0  0  0  0  0  0  0  0  0
    1.4289   -4.1250    0.0000 N   0  0  0  0  0  0  0  0  0  0  0  0
    1.4289   -4.9500    0.0000 C   0  0  0  0  0  0  0  0  0  0  0  0
    0.7145   -5.3625    0.0000 C   0  0  0  0  0  0  0  0  0  0  0  0
   -0.0000   -4.9500    0.0000 N   0  0  0  0  0  0  0  0  0  0  0  0
   -0.0000   -4.1250    0.0000 C   0  0  0  0  0  0  0  0  0  0  0  0
    0.7145   -3.7125    0.0000 C   0  0  0  0  0  0  0  0  0  0  0  0
    1.4289   -2.4750    0.0000 C   0  0  0  0  0  0  0  0  0  0  0  0
    0.7145   -2.8875    0.0000 O   0  0  0  0  0  0  0  0  0  0  0  0
    0.0000   -2.4750    0.0000 C   0  0  0  0  0  0  0  0  0  0  0  0
    1.4289   -1.6500    0.0000 C   0  0  0  0  0  0  0  0  0  0  0  0
    0.7145   -1.2375    0.0000 O   0  0  0  0  0  0  0  0  0  0  0  0
    0.7145   -0.4125    0.0000 C   0  0  0  0  0  0  0  0  0  0  0  0
  1  2  1  0  0  0  0
  2  3  1  0  0  0  0
  3  4  4  0  0  0  0
  4  5  4  0  0  0  0
  5  6  4  0  0  0  0
  6  7  1  0  0  0  0
  7  8  1  0  0  0  0
  8  9  1  0  0  0  0
  9 10  1  0  0  0  0
 10 11  1  0  0  0  0
 11 12  1  0  0  0  0
 12 13  1  0  0  0  0
  8 13  1  0  0  0  0
  6 14  4  0  0  0  0
 14 15  1  0  0  0  0
 15 16  1  0  0  0  0
 14 17  4  0  0  0  0
  3 17  4  0  0  0  0
 17 18  1  0  0  0  0
 18 19  1  0  0  0  0
M  END

> <ChembankId>
1365793

> <SMILES>
COc1ccc(CN2CCNCC2)c(OC)c1OC

> <InChI>
1/C14H22N2O3/c1-17-12-5-4-11(13(18-2)14(12)19-3)10-16-8-6-15-7-9-16/h4-5,15H,6-10H2,1-3H3

$$$$
2284
  Marvin  11101114192D          

 14 14  0  0  1  0            999 V2000
   -0.0000   -1.6500    0.0000 C   0  0  0  0  0  0  0  0  0  0  0  0
    0.0000   -0.8250    0.0000 C   0  0  2  0  0  0  0  0  0  0  0  0
   -0.7145   -0.4125    0.0000 C   0  0  0  0  0  0  0  0  0  0  0  0
   -1.4289   -0.8250    0.0000 C   0  0  0  0  0  0  0  0  0  0  0  0
   -1.4289   -1.6500    0.0000 C   0  0  0  0  0  0  0  0  0  0  0  0
   -2.1434   -2.0625    0.0000 C   0  0  0  0  0  0  0  0  0  0  0  0
   -2.8579   -1.6500    0.0000 C   0  0  0  0  0  0  0  0  0  0  0  0
   -2.8579   -0.8250    0.0000 C   0  0  0  0  0  0  0  0  0  0  0  0
   -2.1434   -0.4125    0.0000 C   0  0  0  0  0  0  0  0  0  0  0  0
    0.7145   -0.4125    0.0000 N   0  0  0  0  0  0  0  0  0  0  0  0
    0.7145    0.4125    0.0000 C   0  0  0  0  0  0  0  0  0  0  0  0
    1.4289   -0.8250    0.0000 C   0  0  0  0  0  0  0  0  0  0  0  0
    2.1434   -0.4125    0.0000 C   0  0  0  0  0  0  0  0  0  0  0  0
    2.8579   -0.0000    0.0000 C   0  0  0  0  0  0  0  0  0  0  0  0
  2  1  1  6  0  0  0
  2  3  1  0  0  0  0
  3  4  1  0  0  0  0
  4  5  4  0  0  0  0
  5  6  4  0  0  0  0
  6  7  4  0  0  0  0
  7  8  4  0  0  0  0
  8  9  4  0  0  0  0
  4  9  4  0  0  0  0
  2 10  1  0  0  0  0
 10 11  1  0  0  0  0
 10 12  1  0  0  0  0
 12 13  1  0  0  0  0
 13 14  3  0  0  0  0
M  END

> <ChembankId>
2284

> <SMILES>
C[C@H](Cc1ccccc1)N(C)CC#C

> <InChI>
1/C13H17N/c1-4-10-14(3)12(2)11-13-8-6-5-7-9-13/h1,5-9,12H,10-11H2,2-3H3

$$$$
1137095
  Marvin  11101114192D          

 25 27  0  0  0  0            999 V2000
   -2.1434   -0.4125    0.0000 C   0  0  0  0  0  0  0  0  0  0  0  0
   -2.1434   -1.2375    0.0000 C   0  0  0  0  0  0  0  0  0  0  0  0
   -2.8579   -1.6500    0.0000 C   0  0  0  0  0  0  0  0  0  0  0  0
   -3.5724   -1.2375    0.0000 C   0  0  0  0  0  0  0  0  0  0  0  0
   -4.2868   -1.6500    0.0000 C   0  0  0  0  0  0  0  0  0  0  0  0
   -5.0013   -1.2375    0.0000 C   0  0  0  0  0  0  0  0  0  0  0  0
   -5.0013   -0.4125    0.0000 C   0  0  0  0  0  0  0  0  0  0  0  0
   -4.2868   -0.0000    0.0000 C   0  0  0  0  0  0  0  0  0  0  0  0
   -3.5724   -0.4125    0.0000 C   0  0  0  0  0  0  0  0  0  0  0  0
   -1.4289   -1.6500    0.0000 N   0  0  0  0  0  0  0  0  0  0  0  0
   -0.7145   -1.2375    0.0000 C   0  0  0  0  0  0  0  0  0  0  0  0
    0.0000   -1.6500    0.0000 C   0  0  0  0  0  0  0  0  0  0  0  0
    0.7145   -1.2375    0.0000 C   0  0  0  0  0  0  0  0  0  0  0  0
    1.4289   -1.6500    0.0000 C   0  0  0  0  0  0  0  0  0  0  0  0
    2.1434   -1.2375    0.0000 C   0  0  0  0  0  0  0  0  0  0  0  0
    2.8579   -1.6500    0.0000 C   0  0  0  0  0  0  0  0  0  0  0  0
    2.8579   -2.4750    0.0000 C   0  0  0  0  0  0  0  0  0  0  0  0
    2.1434   -2.8875    0.0000 C   0  0  0  0  0  0  0  0  0  0  0  0
    1.4289   -2.4750    0.0000 C   0  0  0  0  0  0  0  0  0  0  0  0
    0.7145   -0.4125    0.0000 C   0  0  0  0  0  0  0  0  0  0  0  0
    0.0000   -0.0000    0.0000 C   0  0  0  0  0  0  0  0  0  0  0  0
    0.0000    0.8250    0.0000 C   0  0  0  0  0  0  0  0  0  0  0  0
    0.7145    1.2375    0.0000 C   0  0  0  0  0  0  0  0  0  0  0  0
    1.4289    0.8250    0.0000 C   0  0  0  0  0  0  0  0  0  0  0  0
    1.4289    0.0000    0.0000 C   0  0  0  0  0  0  0  0  0  0  0  0
  1  2  1  0  0  0  0
  2  3  1  0  0  0  0
  3  4  1  0  0  0  0
  4  5  4  0  0  0  0
  5  6  4  0  0  0  0
  6  7  4  0  0  0  0
  7  8  4  0  0  0  0
  8  9  4  0  0  0  0
  4  9  4  0  0  0  0
  2 10  1  0  0  0  0
 10 11  1  0  0  0  0
 11 12  1  0  0  0  0
 12 13  1  0  0  0  0
 13 14  1  0  0  0  0
 14 15  4  0  0  0  0
 15 16  4  0  0  0  0
 16 17  4  0  0  0  0
 17 18  4  0  0  0  0
 18 19  4  0  0  0  0
 14 19  4  0  0  0  0
 13 20  1  0  0  0  0
 20 21  4  0  0  0  0
 21 22  4  0  0  0  0
 22 23  4  0  0  0  0
 23 24  4  0  0  0  0
 24 25  4  0  0  0  0
 20 25  4  0  0  0  0
M  END

> <ChembankId>
1137095

> <SMILES>
CC(Cc1ccccc1)NCCC(c2ccccc2)c3ccccc3

> <InChI>
1/C24H27N/c1-20(19-21-11-5-2-6-12-21)25-18-17-24(22-13-7-3-8-14-22)23-15-9-4-10-16-23/h2-16,20,24-25H,17-19H2,1H3

$$$$
3141
  Marvin  11101114192D          

 46 51  0  0  1  0            999 V2000
    2.0210   -2.0327    0.0000 C   0  0  0  0  0  0  0  0  0  0  0  0
    1.7489   -2.8115    0.0000 O   0  0  0  0  0  0  0  0  0  0  0  0
    2.2873   -3.4366    0.0000 C   0  0  1  0  0  0  0  0  0  0  0  0
    2.0151   -4.2154    0.0000 C   0  0  1  0  0  0  0  0  0  0  0  0
    2.5535   -4.8405    0.0000 C   0  0  0  0  0  0  0  0  0  0  0  0
    3.3641   -4.6868    0.0000 C   0  0  2  0  0  0  0  0  0  0  0  0
    3.9025   -5.3119    0.0000 C   0  0  0  0  0  0  0  0  0  0  0  0
    4.7131   -5.1582    0.0000 N   0  0  0  0  0  0  0  0  0  0  0  0
    5.2515   -5.7833    0.0000 C   0  0  0  0  0  0  0  0  0  0  0  0
    6.0620   -5.6295    0.0000 C   0  0  0  0  0  0  0  0  0  0  0  0
    6.3342   -4.8507    0.0000 C   0  0  0  0  0  0  0  0  0  0  0  0
    5.7957   -4.2256    0.0000 C   0  0  0  0  0  0  0  0  0  0  0  0
    6.2239   -3.5204    0.0000 N   0  0  0  0  0  0  0  0  0  0  0  0
    7.0269   -3.7096    0.0000 C   0  0  0  0  0  0  0  0  0  0  0  0
    7.7048   -3.2395    0.0000 C   0  0  0  0  0  0  0  0  0  0  0  0
    8.4509   -3.5916    0.0000 C   0  0  0  0  0  0  0  0  0  0  0  0
    9.1289   -3.1215    0.0000 O   0  0  0  0  0  0  0  0  0  0  0  0
    9.8750   -3.4735    0.0000 C   0  0  0  0  0  0  0  0  0  0  0  0
    8.5191   -4.4138    0.0000 C   0  0  0  0  0  0  0  0  0  0  0  0
    7.8411   -4.8839    0.0000 C   0  0  0  0  0  0  0  0  0  0  0  0
    7.0950   -4.5318    0.0000 C   0  0  0  0  0  0  0  0  0  0  0  0
    4.9852   -4.3793    0.0000 C   0  0  1  0  0  0  0  0  0  0  0  0
    4.4468   -3.7542    0.0000 C   0  0  0  0  0  0  0  0  0  0  0  0
    3.6362   -3.9080    0.0000 C   0  0  2  0  0  0  0  0  0  0  0  0
    3.0978   -3.2829    0.0000 C   0  0  2  0  0  0  0  0  0  0  0  0
    3.3700   -2.5041    0.0000 C   0  0  0  0  0  0  0  0  0  0  0  0
    4.1805   -2.3503    0.0000 O   0  0  0  0  0  0  0  0  0  0  0  0
    2.8316   -1.8790    0.0000 O   0  0  0  0  0  0  0  0  0  0  0  0
    3.1037   -1.1001    0.0000 C   0  0  0  0  0  0  0  0  0  0  0  0
    1.2046   -4.3692    0.0000 O   0  0  0  0  0  0  0  0  0  0  0  0
    0.9324   -5.1480    0.0000 C   0  0  0  0  0  0  0  0  0  0  0  0
    1.4709   -5.7731    0.0000 O   0  0  0  0  0  0  0  0  0  0  0  0
    0.1219   -5.3017    0.0000 C   0  0  0  0  0  0  0  0  0  0  0  0
   -0.1503   -6.0805    0.0000 C   0  0  0  0  0  0  0  0  0  0  0  0
   -0.9608   -6.2343    0.0000 C   0  0  0  0  0  0  0  0  0  0  0  0
   -1.2329   -7.0131    0.0000 C   0  0  0  0  0  0  0  0  0  0  0  0
   -2.0435   -7.1668    0.0000 C   0  0  0  0  0  0  0  0  0  0  0  0
   -2.3156   -7.9456    0.0000 O   0  0  0  0  0  0  0  0  0  0  0  0
   -3.1262   -8.0993    0.0000 C   0  0  0  0  0  0  0  0  0  0  0  0
   -2.5819   -6.5417    0.0000 C   0  0  0  0  0  0  0  0  0  0  0  0
   -3.3925   -6.6954    0.0000 O   0  0  0  0  0  0  0  0  0  0  0  0
   -3.6646   -7.4743    0.0000 C   0  0  0  0  0  0  0  0  0  0  0  0
   -2.3098   -5.7629    0.0000 C   0  0  0  0  0  0  0  0  0  0  0  0
   -2.8482   -5.1378    0.0000 O   0  0  0  0  0  0  0  0  0  0  0  0
   -2.5760   -4.3590    0.0000 C   0  0  0  0  0  0  0  0  0  0  0  0
   -1.4992   -5.6092    0.0000 C   0  0  0  0  0  0  0  0  0  0  0  0
  1  2  1  0  0  0  0
  3  2  1  6  0  0  0
  3  4  1  0  0  0  0
  4  5  1  0  0  0  0
  6  5  1  1  0  0  0
  6  7  1  0  0  0  0
  7  8  1  0  0  0  0
  8  9  1  0  0  0  0
  9 10  1  0  0  0  0
 10 11  1  0  0  0  0
 11 12  4  0  0  0  0
 12 13  4  0  0  0  0
 13 14  4  0  0  0  0
 14 15  4  0  0  0  0
 15 16  4  0  0  0  0
 16 17  1  0  0  0  0
 17 18  1  0  0  0  0
 16 19  4  0  0  0  0
 19 20  4  0  0  0  0
 20 21  4  0  0  0  0
 11 21  4  0  0  0  0
 14 21  4  0  0  0  0
 12 22  1  0  0  0  0
  8 22  1  0  0  0  0
 22 23  1  6  0  0  0
 24 23  1  1  0  0  0
  6 24  1  0  0  0  0
 24 25  1  0  0  0  0
  3 25  1  0  0  0  0
 25 26  1  1  0  0  0
 26 27  2  0  0  0  0
 26 28  1  0  0  0  0
 28 29  1  0  0  0  0
  4 30  1  1  0  0  0
 30 31  1  0  0  0  0
 31 32  2  0  0  0  0
 31 33  1  0  0  0  0
 33 34  2  0  0  0  0
 34 35  1  0  0  0  0
 35 36  4  0  0  0  0
 36 37  4  0  0  0  0
 37 38  1  0  0  0  0
 38 39  1  0  0  0  0
 37 40  4  0  0  0  0
 40 41  1  0  0  0  0
 41 42  1  0  0  0  0
 40 43  4  0  0  0  0
 43 44  1  0  0  0  0
 44 45  1  0  0  0  0
 43 46  4  0  0  0  0
 35 46  4  0  0  0  0
M  STY  1   1 DAT
M  SAL   1  1  13
M  SDT   1 MRV_IMPLICIT_H                                        
M  SDD   1     0.0000    0.0000    DR    ALL  0       0  
M  SED   1 IMPL_H1
M  END

> <ChembankId>
3141

> <SMILES>
CO[C@H]1[C@@H](C[C@@H]2CN3CCc4c([nH]c5cc(OC)ccc45)[C@H]3C[C@@H]2[C@@H]1C(=O)OC)OC(=O)/C=C/c6cc(OC)c(OC)c(OC)c6

> <InChI>
1/C35H42N2O9/c1-40-21-8-9-22-23-11-12-37-18-20-15-29(46-30(38)10-7-19-13-27(41-2)33(43-4)28(14-19)42-3)34(44-5)31(35(39)45-6)24(20)17-26(37)32(23)36-25(22)16-21/h7-10,13-14,16,20,24,26,29,31,34,36H,11-12,15,17-18H2,1-6H3

$$$$
1000293
  Marvin  11101114192D          

 35 39  0  0  1  0            999 V2000
    2.0630   -1.4167    0.0000 C   0  0  0  0  0  0  0  0  0  0  0  0
    2.8390   -1.6970    0.0000 C   0  0  2  0  0  0  0  0  0  0  0  0
    3.5218   -1.2340    0.0000 C   0  0  0  0  0  0  0  0  0  0  0  0
    4.1731   -1.7404    0.0000 C   0  0  1  0  0  0  0  0  0  0  0  0
    4.9853   -1.5952    0.0000 C   0  0  2  0  0  0  0  0  0  0  0  0
    5.2655   -0.8192    0.0000 C   0  0  0  0  0  0  0  0  0  0  0  0
    6.0777   -0.6740    0.0000 C   0  0  0  0  0  0  0  0  0  0  0  0
    6.6095   -1.3047    0.0000 C   0  0  0  0  0  0  0  0  0  0  0  0
    7.4216   -1.1595    0.0000 C   0  0  0  0  0  0  0  0  0  0  0  0
    7.9534   -1.7902    0.0000 C   0  0  0  0  0  0  0  0  0  0  0  0
    8.7655   -1.6450    0.0000 O   0  0  0  0  0  0  0  0  0  0  0  0
    7.6731   -2.5662    0.0000 C   0  0  0  0  0  0  0  0  0  0  0  0
    6.8610   -2.7114    0.0000 C   0  0  0  0  0  0  0  0  0  0  0  0
    6.3292   -2.0807    0.0000 C   0  0  1  0  0  0  0  0  0  0  0  0
    6.0489   -2.8566    0.0000 C   0  0  0  0  0  0  0  0  0  0  0  0
    5.5171   -2.2259    0.0000 C   0  0  2  0  0  0  0  0  0  0  0  0
    5.5766   -3.0487    0.0000 Cl  0  0  0  0  0  0  0  0  0  0  0  0
    5.2368   -3.0018    0.0000 C   0  0  1  0  0  0  0  0  0  0  0  0
    5.7686   -3.6325    0.0000 O   0  0  0  0  0  0  0  0  0  0  0  0
    4.4247   -3.1470    0.0000 C   0  0  0  0  0  0  0  0  0  0  0  0
    3.8928   -2.5163    0.0000 C   0  0  1  0  0  0  0  0  0  0  0  0
    3.5330   -3.2587    0.0000 C   0  0  0  0  0  0  0  0  0  0  0  0
    3.0683   -2.4895    0.0000 C   0  0  2  0  0  0  0  0  0  0  0  0
    2.3074   -2.8084    0.0000 O   0  0  0  0  0  0  0  0  0  0  0  0
    1.6508   -2.3089    0.0000 C   0  0  0  0  0  0  0  0  0  0  0  0
    1.7551   -1.4905    0.0000 O   0  0  0  0  0  0  0  0  0  0  0  0
    0.8899   -2.6277    0.0000 C   0  0  0  0  0  0  0  0  0  0  0  0
    0.7006   -3.4307    0.0000 C   0  0  0  0  0  0  0  0  0  0  0  0
   -0.1215   -3.4989    0.0000 C   0  0  0  0  0  0  0  0  0  0  0  0
   -0.4404   -2.7380    0.0000 C   0  0  0  0  0  0  0  0  0  0  0  0
    0.1847   -2.1996    0.0000 O   0  0  0  0  0  0  0  0  0  0  0  0
    2.9469   -3.3055    0.0000 C   0  0  0  0  0  0  0  0  0  0  0  0
    3.5929   -3.8187    0.0000 O   0  0  0  0  0  0  0  0  0  0  0  0
    2.1795   -3.6084    0.0000 C   0  0  0  0  0  0  0  0  0  0  0  0
    2.0581   -4.4244    0.0000 Cl  0  0  0  0  0  0  0  0  0  0  0  0
  2  1  1  6  0  0  0
  2  3  1  0  0  0  0
  4  3  1  1  0  0  0
  4  5  1  0  0  0  0
  5  6  1  6  0  0  0
  6  7  1  0  0  0  0
  7  8  1  0  0  0  0
  8  9  2  0  0  0  0
  9 10  1  0  0  0  0
 10 11  2  0  0  0  0
 10 12  1  0  0  0  0
 12 13  2  0  0  0  0
 13 14  1  0  0  0  0
  8 14  1  0  0  0  0
 14 15  1  1  0  0  0
 14 16  1  0  0  0  0
  5 16  1  0  0  0  0
 16 17  1  6  0  0  0
 16 18  1  0  0  0  0
 18 19  1  1  0  0  0
 18 20  1  0  0  0  0
 20 21  1  0  0  0  0
  4 21  1  0  0  0  0
 21 22  1  1  0  0  0
 21 23  1  0  0  0  0
  2 23  1  0  0  0  0
 23 24  1  6  0  0  0
 24 25  1  0  0  0  0
 25 26  2  0  0  0  0
 25 27  1  0  0  0  0
 27 28  4  0  0  0  0
 28 29  4  0  0  0  0
 29 30  4  0  0  0  0
 30 31  4  0  0  0  0
 27 31  4  0  0  0  0
 23 32  1  1  0  0  0
 32 33  2  0  0  0  0
 32 34  1  0  0  0  0
 34 35  1  0  0  0  0
M  END

> <ChembankId>
1000293

> <SMILES>
C[C@@H]1C[C@H]2[C@@H]3CCC4=CC(=O)C=C[C@]4(C)[C@@]3(Cl)[C@@H](O)C[C@]2(C)[C@@]1(OC(=O)c5ccco5)C(=O)CCl

> <InChI>
1/C27H30Cl2O6/c1-15-11-19-18-7-6-16-12-17(30)8-9-24(16,2)26(18,29)21(31)13-25(19,3)27(15,22(32)14-28)35-23(33)20-5-4-10-34-20/h4-5,8-10,12,15,18-19,21,31H,6-7,11,13-14H2,1-3H3

$$$$
1092107
  Marvin  11101114192D          

 23 25  0  0  0  0            999 V2000
    2.8579    0.0000    0.0000 C   0  0  0  0  0  0  0  0  0  0  0  0
    3.5724    0.4125    0.0000 N   0  0  0  0  0  0  0  0  0  0  0  0
    3.5724    1.2375    0.0000 C   0  0  0  0  0  0  0  0  0  0  0  0
    4.2868    0.0000    0.0000 C   0  0  0  0  0  0  0  0  0  0  0  0
    5.0013    0.4125    0.0000 C   0  0  0  0  0  0  0  0  0  0  0  0
    5.7158    0.0000    0.0000 C   0  0  0  0  0  0  0  0  0  0  0  0
    6.4302    0.4125    0.0000 N   0  0  0  0  0  0  0  0  0  0  0  0
    6.4302    1.2375    0.0000 C   0  0  0  0  0  0  0  0  0  0  0  0
    5.7158    1.6500    0.0000 C   0  0  0  0  0  0  0  0  0  0  0  0
    5.7158    2.4750    0.0000 C   0  0  0  0  0  0  0  0  0  0  0  0
    6.4302    2.8875    0.0000 C   0  0  0  0  0  0  0  0  0  0  0  0
    7.1447    2.4750    0.0000 C   0  0  0  0  0  0  0  0  0  0  0  0
    7.1447    1.6500    0.0000 C   0  0  0  0  0  0  0  0  0  0  0  0
    7.8592    1.2375    0.0000 S   0  0  0  0  0  0  0  0  0  0  0  0
    7.8592    0.4125    0.0000 C   0  0  0  0  0  0  0  0  0  0  0  0
    8.5737    0.0000    0.0000 C   0  0  0  0  0  0  0  0  0  0  0  0
    8.5737   -0.8250    0.0000 C   0  0  0  0  0  0  0  0  0  0  0  0
    7.8592   -1.2375    0.0000 C   0  0  0  0  0  0  0  0  0  0  0  0
    7.1447   -0.8250    0.0000 C   0  0  0  0  0  0  0  0  0  0  0  0
    7.1447    0.0000    0.0000 C   0  0  0  0  0  0  0  0  0  0  0  0
    7.8592   -2.0625    0.0000 C   0  0  0  0  0  0  0  0  0  0  0  0
    8.5737   -2.4750    0.0000 O   0  0  0  0  0  0  0  0  0  0  0  0
    7.1447   -2.4750    0.0000 C   0  0  0  0  0  0  0  0  0  0  0  0
  1  2  1  0  0  0  0
  2  3  1  0  0  0  0
  2  4  1  0  0  0  0
  4  5  1  0  0  0  0
  5  6  1  0  0  0  0
  6  7  1  0  0  0  0
  7  8  1  0  0  0  0
  8  9  4  0  0  0  0
  9 10  4  0  0  0  0
 10 11  4  0  0  0  0
 11 12  4  0  0  0  0
 12 13  4  0  0  0  0
  8 13  4  0  0  0  0
 13 14  1  0  0  0  0
 14 15  1  0  0  0  0
 15 16  4  0  0  0  0
 16 17  4  0  0  0  0
 17 18  4  0  0  0  0
 18 19  4  0  0  0  0
 19 20  4  0  0  0  0
  7 20  1  0  0  0  0
 15 20  4  0  0  0  0
 18 21  1  0  0  0  0
 21 22  2  0  0  0  0
 21 23  1  0  0  0  0
M  END

> <ChembankId>
1092107

> <SMILES>
CN(C)CCCN1c2ccccc2Sc3ccc(cc13)C(=O)C

> <InChI>
1/C19H22N2OS/c1-14(22)15-9-10-19-17(13-15)21(12-6-11-20(2)3)16-7-4-5-8-18(16)23-19/h4-5,7-10,13H,6,11-12H2,1-3H3

$$$$
3043
  Marvin  11101114192D          

 35 38  0  0  1  0            999 V2000
    2.0630   -1.4167    0.0000 C   0  0  0  0  0  0  0  0  0  0  0  0
    2.8390   -1.6970    0.0000 C   0  0  1  0  0  0  0  0  0  0  0  0
    3.5218   -1.2340    0.0000 C   0  0  0  0  0  0  0  0  0  0  0  0
    4.1731   -1.7404    0.0000 C   0  0  1  0  0  0  0  0  0  0  0  0
    4.9853   -1.5952    0.0000 C   0  0  2  0  0  0  0  0  0  0  0  0
    5.2655   -0.8192    0.0000 C   0  0  0  0  0  0  0  0  0  0  0  0
    6.0777   -0.6740    0.0000 C   0  0  2  0  0  0  0  0  0  0  0  0
    6.3580    0.1019    0.0000 F   0  0  0  0  0  0  0  0  0  0  0  0
    6.6095   -1.3047    0.0000 C   0  0  0  0  0  0  0  0  0  0  0  0
    7.4216   -1.1595    0.0000 C   0  0  0  0  0  0  0  0  0  0  0  0
    7.9534   -1.7902    0.0000 C   0  0  0  0  0  0  0  0  0  0  0  0
    8.7655   -1.6450    0.0000 O   0  0  0  0  0  0  0  0  0  0  0  0
    7.6731   -2.5662    0.0000 C   0  0  0  0  0  0  0  0  0  0  0  0
    6.8610   -2.7114    0.0000 C   0  0  0  0  0  0  0  0  0  0  0  0
    6.3292   -2.0807    0.0000 C   0  0  1  0  0  0  0  0  0  0  0  0
    6.0489   -2.8566    0.0000 C   0  0  0  0  0  0  0  0  0  0  0  0
    5.5171   -2.2259    0.0000 C   0  0  2  0  0  0  0  0  0  0  0  0
    5.5766   -3.0487    0.0000 F   0  0  0  0  0  0  0  0  0  0  0  0
    5.2368   -3.0018    0.0000 C   0  0  1  0  0  0  0  0  0  0  0  0
    5.7686   -3.6325    0.0000 O   0  0  0  0  0  0  0  0  0  0  0  0
    4.4247   -3.1470    0.0000 C   0  0  0  0  0  0  0  0  0  0  0  0
    3.8928   -2.5163    0.0000 C   0  0  1  0  0  0  0  0  0  0  0  0
    3.5330   -3.2587    0.0000 C   0  0  0  0  0  0  0  0  0  0  0  0
    3.0683   -2.4895    0.0000 C   0  0  2  0  0  0  0  0  0  0  0  0
    2.9469   -3.3055    0.0000 O   0  0  0  0  0  0  0  0  0  0  0  0
    3.5929   -3.8187    0.0000 C   0  0  0  0  0  0  0  0  0  0  0  0
    4.3603   -3.5158    0.0000 O   0  0  0  0  0  0  0  0  0  0  0  0
    3.4715   -4.6347    0.0000 C   0  0  0  0  0  0  0  0  0  0  0  0
    2.3074   -2.8084    0.0000 C   0  0  0  0  0  0  0  0  0  0  0  0
    2.2031   -3.6268    0.0000 O   0  0  0  0  0  0  0  0  0  0  0  0
    1.6508   -2.3089    0.0000 C   0  0  0  0  0  0  0  0  0  0  0  0
    0.8899   -2.6277    0.0000 O   0  0  0  0  0  0  0  0  0  0  0  0
    0.2333   -2.1282    0.0000 C   0  0  0  0  0  0  0  0  0  0  0  0
   -0.5276   -2.4471    0.0000 O   0  0  0  0  0  0  0  0  0  0  0  0
    0.3376   -1.3099    0.0000 C   0  0  0  0  0  0  0  0  0  0  0  0
  2  1  1  1  0  0  0
  2  3  1  0  0  0  0
  4  3  1  1  0  0  0
  4  5  1  0  0  0  0
  5  6  1  6  0  0  0
  6  7  1  0  0  0  0
  7  8  1  6  0  0  0
  7  9  1  0  0  0  0
  9 10  2  0  0  0  0
 10 11  1  0  0  0  0
 11 12  2  0  0  0  0
 11 13  1  0  0  0  0
 13 14  2  0  0  0  0
 14 15  1  0  0  0  0
  9 15  1  0  0  0  0
 15 16  1  1  0  0  0
 15 17  1  0  0  0  0
  5 17  1  0  0  0  0
 17 18  1  6  0  0  0
 17 19  1  0  0  0  0
 19 20  1  1  0  0  0
 19 21  1  0  0  0  0
 21 22  1  0  0  0  0
  4 22  1  0  0  0  0
 22 23  1  1  0  0  0
 22 24  1  0  0  0  0
  2 24  1  0  0  0  0
 24 25  1  6  0  0  0
 25 26  1  0  0  0  0
 26 27  2  0  0  0  0
 26 28  1  0  0  0  0
 24 29  1  1  0  0  0
 29 30  2  0  0  0  0
 29 31  1  0  0  0  0
 31 32  1  0  0  0  0
 32 33  1  0  0  0  0
 33 34  2  0  0  0  0
 33 35  1  0  0  0  0
M  END

> <ChembankId>
3043

> <SMILES>
C[C@H]1C[C@H]2[C@@H]3C[C@H](F)C4=CC(=O)C=C[C@]4(C)[C@@]3(F)[C@@H](O)C[C@]2(C)[C@@]1(OC(=O)C)C(=O)COC(=O)C

> <InChI>
1/C26H32F2O7/c1-13-8-17-18-10-20(27)19-9-16(31)6-7-23(19,4)25(18,28)21(32)11-24(17,5)26(13,35-15(3)30)22(33)12-34-14(2)29/h6-7,9,13,17-18,20-21,32H,8,10-12H2,1-5H3

$$$$
3189579
  Marvin  11101114192D          

 27 28  0  0  0  0            999 V2000
    0.3488   -4.0145    0.0000 C   0  0  0  0  0  0  0  0  0  0  0  0
    1.1589   -4.1704    0.0000 C   0  0  0  0  0  0  0  0  0  0  0  0
    1.6990   -3.5468    0.0000 O   0  0  0  0  0  0  0  0  0  0  0  0
    1.4289   -4.9500    0.0000 S   0  0  0  0  0  0  0  0  0  0  0  0
    0.8889   -5.5736    0.0000 C   0  0  0  0  0  0  0  0  0  0  0  0
    1.1589   -6.3532    0.0000 C   0  0  0  0  0  0  0  0  0  0  0  0
    0.6188   -6.9768    0.0000 C   0  0  0  0  0  0  0  0  0  0  0  0
   -0.1913   -6.8209    0.0000 C   0  0  0  0  0  0  0  0  0  0  0  0
   -0.7314   -7.4446    0.0000 C   0  0  0  0  0  0  0  0  0  0  0  0
   -1.5415   -7.2887    0.0000 C   0  0  0  0  0  0  0  0  0  0  0  0
   -1.8116   -6.5091    0.0000 C   0  0  0  0  0  0  0  0  0  0  0  0
   -1.2715   -5.8855    0.0000 C   0  0  0  0  0  0  0  0  0  0  0  0
   -0.4614   -6.0414    0.0000 C   0  0  0  0  0  0  0  0  0  0  0  0
    1.9690   -6.5091    0.0000 C   0  0  0  0  0  0  0  0  0  0  0  0
    2.2391   -7.2887    0.0000 O   0  0  0  0  0  0  0  0  0  0  0  0
    2.5091   -5.8855    0.0000 N   0  0  0  0  0  0  0  0  0  0  0  0
    3.3193   -6.0414    0.0000 C   0  0  0  0  0  0  0  0  0  0  0  0
    3.8593   -5.4177    0.0000 C   0  0  0  0  0  0  0  0  0  0  0  0
    3.5893   -4.6382    0.0000 O   0  0  0  0  0  0  0  0  0  0  0  0
    4.6695   -5.5736    0.0000 O   0  0  0  0  0  0  0  0  0  0  0  0
    5.2096   -4.9500    0.0000 C   0  0  0  0  0  0  0  0  0  0  0  0
    6.0197   -5.1059    0.0000 C   0  0  0  0  0  0  0  0  0  0  0  0
    6.5598   -4.4823    0.0000 C   0  0  0  0  0  0  0  0  0  0  0  0
    7.3699   -4.6382    0.0000 C   0  0  0  0  0  0  0  0  0  0  0  0
    7.6400   -5.4177    0.0000 C   0  0  0  0  0  0  0  0  0  0  0  0
    7.0999   -6.0414    0.0000 C   0  0  0  0  0  0  0  0  0  0  0  0
    6.2897   -5.8855    0.0000 C   0  0  0  0  0  0  0  0  0  0  0  0
  1  2  1  0  0  0  0
  2  3  2  0  0  0  0
  2  4  1  0  0  0  0
  4  5  1  0  0  0  0
  5  6  1  0  0  0  0
  6  7  1  0  0  0  0
  7  8  1  0  0  0  0
  8  9  4  0  0  0  0
  9 10  4  0  0  0  0
 10 11  4  0  0  0  0
 11 12  4  0  0  0  0
 12 13  4  0  0  0  0
  8 13  4  0  0  0  0
  6 14  1  0  0  0  0
 14 15  2  0  0  0  0
 14 16  1  0  0  0  0
 16 17  1  0  0  0  0
 17 18  1  0  0  0  0
 18 19  2  0  0  0  0
 18 20  1  0  0  0  0
 20 21  1  0  0  0  0
 21 22  1  0  0  0  0
 22 23  4  0  0  0  0
 23 24  4  0  0  0  0
 24 25  4  0  0  0  0
 25 26  4  0  0  0  0
 26 27  4  0  0  0  0
 22 27  4  0  0  0  0
M  END

> <ChembankId>
3189579

> <SMILES>
CC(=O)SCC(Cc1ccccc1)C(=O)NCC(=O)OCc2ccccc2

> <InChI>
1/C21H23NO4S/c1-16(23)27-15-19(12-17-8-4-2-5-9-17)21(25)22-13-20(24)26-14-18-10-6-3-7-11-18/h2-11,19H,12-15H2,1H3,(H,22,25)

$$$$
3487152
  Marvin  11101114192D          

 25 25  0  0  0  0            999 V2000
    4.2868   -0.0000    0.0000 C   0  0  0  0  0  0  0  0  0  0  0  0
    3.5724   -0.4125    0.0000 N   0  0  0  0  0  0  0  0  0  0  0  0
    2.8579   -0.0000    0.0000 C   0  0  0  0  0  0  0  0  0  0  0  0
    2.1434   -0.4125    0.0000 C   0  0  0  0  0  0  0  0  0  0  0  0
    2.1434   -1.2375    0.0000 O   0  0  0  0  0  0  0  0  0  0  0  0
    1.4289   -0.0000    0.0000 C   0  0  0  0  0  0  0  0  0  0  0  0
    0.7145   -0.4125    0.0000 C   0  0  0  0  0  0  0  0  0  0  0  0
    0.0000   -0.0000    0.0000 C   0  0  0  0  0  0  0  0  0  0  0  0
    0.0000    0.8250    0.0000 C   0  0  0  0  0  0  0  0  0  0  0  0
   -0.7145    1.2375    0.0000 O   0  0  0  0  0  0  0  0  0  0  0  0
   -0.7145    2.0625    0.0000 C   0  0  0  0  0  0  0  0  0  0  0  0
    0.0000    2.4750    0.0000 O   0  0  0  0  0  0  0  0  0  0  0  0
   -1.4289    2.4750    0.0000 C   0  0  0  0  0  0  0  0  0  0  0  0
   -2.1434    2.8875    0.0000 C   0  0  0  0  0  0  0  0  0  0  0  0
   -1.0164    3.1895    0.0000 C   0  0  0  0  0  0  0  0  0  0  0  0
   -1.8414    1.7605    0.0000 C   0  0  0  0  0  0  0  0  0  0  0  0
    0.7145    1.2375    0.0000 C   0  0  0  0  0  0  0  0  0  0  0  0
    0.7145    2.0625    0.0000 O   0  0  0  0  0  0  0  0  0  0  0  0
    1.4289    2.4750    0.0000 C   0  0  0  0  0  0  0  0  0  0  0  0
    1.4289    3.3000    0.0000 O   0  0  0  0  0  0  0  0  0  0  0  0
    2.1434    2.0625    0.0000 C   0  0  0  0  0  0  0  0  0  0  0  0
    1.7309    1.3480    0.0000 C   0  0  0  0  0  0  0  0  0  0  0  0
    2.5559    2.7770    0.0000 C   0  0  0  0  0  0  0  0  0  0  0  0
    2.8579    1.6500    0.0000 C   0  0  0  0  0  0  0  0  0  0  0  0
    1.4289    0.8250    0.0000 C   0  0  0  0  0  0  0  0  0  0  0  0
  1  2  1  0  0  0  0
  2  3  1  0  0  0  0
  3  4  1  0  0  0  0
  4  5  1  0  0  0  0
  4  6  1  0  0  0  0
  6  7  4  0  0  0  0
  7  8  4  0  0  0  0
  8  9  4  0  0  0  0
  9 10  1  0  0  0  0
 10 11  1  0  0  0  0
 11 12  2  0  0  0  0
 11 13  1  0  0  0  0
 13 14  1  0  0  0  0
 13 15  1  0  0  0  0
 13 16  1  0  0  0  0
  9 17  4  0  0  0  0
 17 18  1  0  0  0  0
 18 19  1  0  0  0  0
 19 20  2  0  0  0  0
 19 21  1  0  0  0  0
 21 22  1  0  0  0  0
 21 23  1  0  0  0  0
 21 24  1  0  0  0  0
 17 25  4  0  0  0  0
  6 25  4  0  0  0  0
M  END

> <ChembankId>
3487152

> <SMILES>
CNCC(O)c1ccc(OC(=O)C(C)(C)C)c(OC(=O)C(C)(C)C)c1

> <InChI>
1/C19H29NO5/c1-18(2,3)16(22)24-14-9-8-12(13(21)11-20-7)10-15(14)25-17(23)19(4,5)6/h8-10,13,20-21H,11H2,1-7H3

$$$$
1624
  Marvin  11101114192D          

 34 36  0  0  0  0            999 V2000
   -7.7650   -7.6069    0.0000 C   0  0  0  0  0  0  0  0  0  0  0  0
   -6.9445   -7.5207    0.0000 C   0  0  0  0  0  0  0  0  0  0  0  0
   -6.6090   -6.7670    0.0000 C   0  0  0  0  0  0  0  0  0  0  0  0
   -7.0215   -6.0525    0.0000 C   0  0  0  0  0  0  0  0  0  0  0  0
   -7.8420   -5.9663    0.0000 C   0  0  0  0  0  0  0  0  0  0  0  0
   -6.4694   -5.4394    0.0000 C   0  0  0  0  0  0  0  0  0  0  0  0
   -5.7158   -5.7750    0.0000 N   0  0  0  0  0  0  0  0  0  0  0  0
   -5.0013   -5.3625    0.0000 C   0  0  0  0  0  0  0  0  0  0  0  0
   -4.2868   -5.7750    0.0000 O   0  0  0  0  0  0  0  0  0  0  0  0
   -5.0013   -4.5375    0.0000 N   0  0  0  0  0  0  0  0  0  0  0  0
   -4.2868   -4.1250    0.0000 C   0  0  0  0  0  0  0  0  0  0  0  0
   -4.2868   -3.3000    0.0000 C   0  0  0  0  0  0  0  0  0  0  0  0
   -3.5724   -2.8875    0.0000 C   0  0  0  0  0  0  0  0  0  0  0  0
   -3.5724   -2.0625    0.0000 C   0  0  0  0  0  0  0  0  0  0  0  0
   -2.8579   -1.6500    0.0000 C   0  0  0  0  0  0  0  0  0  0  0  0
   -2.1434   -2.0625    0.0000 C   0  0  0  0  0  0  0  0  0  0  0  0
   -2.1434   -2.8875    0.0000 C   0  0  0  0  0  0  0  0  0  0  0  0
   -2.8579   -3.3000    0.0000 C   0  0  0  0  0  0  0  0  0  0  0  0
   -1.4289   -1.6500    0.0000 S   0  0  0  0  0  0  0  0  0  0  0  0
   -1.0164   -2.3645    0.0000 O   0  0  0  0  0  0  0  0  0  0  0  0
   -1.8414   -0.9355    0.0000 O   0  0  0  0  0  0  0  0  0  0  0  0
   -0.7145   -1.2375    0.0000 N   0  0  0  0  0  0  0  0  0  0  0  0
    0.0000   -1.6500    0.0000 C   0  0  0  0  0  0  0  0  0  0  0  0
    0.0000   -2.4750    0.0000 O   0  0  0  0  0  0  0  0  0  0  0  0
    0.7145   -1.2375    0.0000 N   0  0  0  0  0  0  0  0  0  0  0  0
    0.7145   -0.4125    0.0000 C   0  0  1  0  0  0  0  0  0  0  0  0
    0.0000    0.0000    0.0000 C   0  0  0  0  0  0  0  0  0  0  0  0
    0.0000    0.8250    0.0000 C   0  0  0  0  0  0  0  0  0  0  0  0
    0.7145    1.2375    0.0000 C   0  0  2  0  0  0  0  0  0  0  0  0
    0.7145    2.0625    0.0000 C   0  0  0  0  0  0  0  0  0  0  0  0
    1.4289    0.8250    0.0000 C   0  0  0  0  0  0  0  0  0  0  0  0
    1.4289    0.0000    0.0000 C   0  0  0  0  0  0  0  0  0  0  0  0
   -5.8020   -6.5955    0.0000 C   0  0  0  0  0  0  0  0  0  0  0  0
   -5.1889   -7.1475    0.0000 O   0  0  0  0  0  0  0  0  0  0  0  0
  1  2  1  0  0  0  0
  2  3  1  0  0  0  0
  3  4  2  0  0  0  0
  4  5  1  0  0  0  0
  4  6  1  0  0  0  0
  6  7  1  0  0  0  0
  7  8  1  0  0  0  0
  8  9  2  0  0  0  0
  8 10  1  0  0  0  0
 10 11  1  0  0  0  0
 11 12  1  0  0  0  0
 12 13  1  0  0  0  0
 13 14  4  0  0  0  0
 14 15  4  0  0  0  0
 15 16  4  0  0  0  0
 16 17  4  0  0  0  0
 17 18  4  0  0  0  0
 13 18  4  0  0  0  0
 16 19  1  0  0  0  0
 19 20  2  0  0  0  0
 19 21  2  0  0  0  0
 19 22  1  0  0  0  0
 22 23  1  0  0  0  0
 23 24  2  0  0  0  0
 23 25  1  0  0  0  0
 26 25  1  1  0  0  0
 26 27  1  0  0  0  0
 27 28  1  0  0  0  0
 28 29  1  0  0  0  0
 29 30  1  6  0  0  0
 29 31  1  0  0  0  0
 31 32  1  0  0  0  0
 26 32  1  0  0  0  0
  7 33  1  0  0  0  0
  3 33  1  0  0  0  0
 33 34  2  0  0  0  0
M  END

> <ChembankId>
1624

> <SMILES>
CCC1=C(C)CN(C(=O)NCCc2ccc(cc2)S(=O)(=O)NC(=O)N[C@H]3CC[C@H](C)CC3)C1=O

> <InChI>
1/C24H34N4O5S/c1-4-21-17(3)15-28(22(21)29)24(31)25-14-13-18-7-11-20(12-8-18)34(32,33)27-23(30)26-19-9-5-16(2)6-10-19/h7-8,11-12,16,19H,4-6,9-10,13-15H2,1-3H3,(H,25,31)(H2,26,27,30)

$$$$
3129
  Marvin  11101114192D          

 23 26  0  0  1  0            999 V2000
    1.7447   -3.0280    0.0000 C   0  0  0  0  0  0  0  0  0  0  0  0
    2.5619   -3.1408    0.0000 C   0  0  0  0  0  0  0  0  0  0  0  0
    2.8728   -3.9050    0.0000 O   0  0  0  0  0  0  0  0  0  0  0  0
    3.0683   -2.4895    0.0000 C   0  0  1  0  0  0  0  0  0  0  0  0
    2.8390   -1.6970    0.0000 C   0  0  0  0  0  0  0  0  0  0  0  0
    3.5218   -1.2340    0.0000 C   0  0  0  0  0  0  0  0  0  0  0  0
    4.1731   -1.7404    0.0000 C   0  0  1  0  0  0  0  0  0  0  0  0
    4.9853   -1.5952    0.0000 C   0  0  2  0  0  0  0  0  0  0  0  0
    5.2655   -0.8192    0.0000 C   0  0  0  0  0  0  0  0  0  0  0  0
    6.0777   -0.6740    0.0000 C   0  0  0  0  0  0  0  0  0  0  0  0
    6.6095   -1.3047    0.0000 C   0  0  0  0  0  0  0  0  0  0  0  0
    7.4216   -1.1595    0.0000 C   0  0  0  0  0  0  0  0  0  0  0  0
    7.9534   -1.7902    0.0000 C   0  0  0  0  0  0  0  0  0  0  0  0
    8.7655   -1.6450    0.0000 O   0  0  0  0  0  0  0  0  0  0  0  0
    7.6731   -2.5662    0.0000 C   0  0  0  0  0  0  0  0  0  0  0  0
    6.8610   -2.7114    0.0000 C   0  0  0  0  0  0  0  0  0  0  0  0
    6.3292   -2.0807    0.0000 C   0  0  2  0  0  0  0  0  0  0  0  0
    6.0489   -2.8566    0.0000 C   0  0  0  0  0  0  0  0  0  0  0  0
    5.5171   -2.2259    0.0000 C   0  0  2  0  0  0  0  0  0  0  0  0
    5.2368   -3.0018    0.0000 C   0  0  0  0  0  0  0  0  0  0  0  0
    4.4247   -3.1470    0.0000 C   0  0  0  0  0  0  0  0  0  0  0  0
    3.8928   -2.5163    0.0000 C   0  0  2  0  0  0  0  0  0  0  0  0
    3.5330   -3.2587    0.0000 C   0  0  0  0  0  0  0  0  0  0  0  0
  1  2  1  0  0  0  0
  2  3  2  0  0  0  0
  4  2  1  1  0  0  0
  4  5  1  0  0  0  0
  5  6  1  0  0  0  0
  7  6  1  1  0  0  0
  7  8  1  0  0  0  0
  8  9  1  6  0  0  0
  9 10  2  0  0  0  0
 10 11  1  0  0  0  0
 11 12  2  0  0  0  0
 12 13  1  0  0  0  0
 13 14  2  0  0  0  0
 13 15  1  0  0  0  0
 15 16  1  0  0  0  0
 16 17  1  0  0  0  0
 11 17  1  0  0  0  0
 17 18  1  6  0  0  0
 17 19  1  0  0  0  0
  8 19  1  0  0  0  0
 19 20  1  6  0  0  0
 20 21  1  0  0  0  0
 21 22  1  0  0  0  0
  4 22  1  0  0  0  0
  7 22  1  0  0  0  0
 22 23  1  1  0  0  0
M  END

> <ChembankId>
3129

> <SMILES>
CC(=O)[C@H]1CC[C@H]2[C@@H]3C=CC4=CC(=O)CC[C@@]4(C)[C@@H]3CC[C@]12C

> <InChI>
1/C21H28O2/c1-13(22)17-6-7-18-16-5-4-14-12-15(23)8-10-20(14,2)19(16)9-11-21(17,18)3/h4-5,12,16-19H,6-11H2,1-3H3

$$$$
3187745
  Marvin  11101114192D          

 24 27  0  0  1  0            999 V2000
    3.5330   -3.2587    0.0000 C   0  0  0  0  0  0  0  0  0  0  0  0
    3.8928   -2.5163    0.0000 C   0  0  2  0  0  0  0  0  0  0  0  0
    4.4247   -3.1470    0.0000 C   0  0  0  0  0  0  0  0  0  0  0  0
    5.2368   -3.0018    0.0000 C   0  0  0  0  0  0  0  0  0  0  0  0
    5.5171   -2.2259    0.0000 C   0  0  1  0  0  0  0  0  0  0  0  0
    4.9853   -1.5952    0.0000 C   0  0  1  0  0  0  0  0  0  0  0  0
    5.2655   -0.8192    0.0000 C   0  0  0  0  0  0  0  0  0  0  0  0
    6.0777   -0.6740    0.0000 C   0  0  0  0  0  0  0  0  0  0  0  0
    6.6095   -1.3047    0.0000 C   0  0  0  0  0  0  0  0  0  0  0  0
    7.4216   -1.1595    0.0000 C   0  0  0  0  0  0  0  0  0  0  0  0
    7.9534   -1.7902    0.0000 C   0  0  0  0  0  0  0  0  0  0  0  0
    8.7655   -1.6450    0.0000 O   0  0  0  0  0  0  0  0  0  0  0  0
    9.2974   -2.2757    0.0000 S   0  0  0  0  0  0  0  0  0  0  0  0
    9.8292   -2.9064    0.0000 O   0  0  0  0  0  0  0  0  0  0  0  0
    9.9281   -1.7439    0.0000 O   0  0  0  0  0  0  0  0  0  0  0  0
    8.6667   -2.8075    0.0000 O   0  0  0  0  0  0  0  0  0  0  0  0
    7.6731   -2.5662    0.0000 C   0  0  0  0  0  0  0  0  0  0  0  0
    6.8610   -2.7114    0.0000 C   0  0  0  0  0  0  0  0  0  0  0  0
    6.3292   -2.0807    0.0000 C   0  0  0  0  0  0  0  0  0  0  0  0
    4.1731   -1.7404    0.0000 C   0  0  2  0  0  0  0  0  0  0  0  0
    3.5218   -1.2340    0.0000 C   0  0  0  0  0  0  0  0  0  0  0  0
    2.8390   -1.6970    0.0000 C   0  0  0  0  0  0  0  0  0  0  0  0
    3.0683   -2.4895    0.0000 C   0  0  0  0  0  0  0  0  0  0  0  0
    2.5619   -3.1408    0.0000 O   0  0  0  0  0  0  0  0  0  0  0  0
  2  1  1  1  0  0  0
  2  3  1  0  0  0  0
  3  4  1  0  0  0  0
  4  5  1  0  0  0  0
  5  6  1  0  0  0  0
  6  7  1  6  0  0  0
  7  8  1  0  0  0  0
  8  9  1  0  0  0  0
  9 10  4  0  0  0  0
 10 11  4  0  0  0  0
 11 12  1  0  0  0  0
 12 13  1  0  0  0  0
 13 14  2  0  0  0  0
 13 15  2  0  0  0  0
 13 16  1  0  0  0  0
 11 17  4  0  0  0  0
 17 18  4  0  0  0  0
 18 19  4  0  0  0  0
  5 19  1  1  0  0  0
  9 19  4  0  0  0  0
  6 20  1  0  0  0  0
  2 20  1  0  0  0  0
 20 21  1  1  0  0  0
 21 22  1  0  0  0  0
 22 23  1  0  0  0  0
  2 23  1  0  0  0  0
 23 24  2  0  0  0  0
M  END

> <ChembankId>
3187745

> <SMILES>
C[C@@]12CC[C@H]3[C@@H](CCc4cc(OS(=O)(=O)O)ccc34)[C@@H]2CCC1=O

> <InChI>
1/C18H22O5S/c1-18-9-8-14-13-5-3-12(23-24(20,21)22)10-11(13)2-4-15(14)16(18)6-7-17(18)19/h3,5,10,14-16H,2,4,6-9H2,1H3,(H,20,21,22)

$$$$
1424515
  Marvin  11101114192D          

 15 16  0  0  0  0            999 V2000
    1.4289   -0.0000    0.0000 C   0  0  0  0  0  0  0  0  0  0  0  0
    0.7145   -0.4125    0.0000 C   0  0  0  0  0  0  0  0  0  0  0  0
    0.7145   -1.2375    0.0000 N   0  0  0  0  0  0  0  0  0  0  0  0
    1.3819   -1.7224    0.0000 C   0  0  0  0  0  0  0  0  0  0  0  0
    2.1665   -1.4675    0.0000 O   0  0  0  0  0  0  0  0  0  0  0  0
    1.1270   -2.5070    0.0000 N   0  0  0  0  0  0  0  0  0  0  0  0
    0.3020   -2.5070    0.0000 C   0  0  0  0  0  0  0  0  0  0  0  0
    0.0470   -1.7224    0.0000 C   0  0  0  0  0  0  0  0  0  0  0  0
   -0.7376   -1.4675    0.0000 O   0  0  0  0  0  0  0  0  0  0  0  0
   -0.1830   -3.1745    0.0000 C   0  0  0  0  0  0  0  0  0  0  0  0
    0.1526   -3.9282    0.0000 C   0  0  0  0  0  0  0  0  0  0  0  0
   -0.3323   -4.5956    0.0000 C   0  0  0  0  0  0  0  0  0  0  0  0
   -1.1528   -4.5094    0.0000 C   0  0  0  0  0  0  0  0  0  0  0  0
   -1.4884   -3.7557    0.0000 C   0  0  0  0  0  0  0  0  0  0  0  0
   -1.0034   -3.0882    0.0000 C   0  0  0  0  0  0  0  0  0  0  0  0
  1  2  1  0  0  0  0
  2  3  1  0  0  0  0
  3  4  1  0  0  0  0
  4  5  2  0  0  0  0
  4  6  1  0  0  0  0
  6  7  1  0  0  0  0
  7  8  1  0  0  0  0
  3  8  1  0  0  0  0
  8  9  2  0  0  0  0
  7 10  1  0  0  0  0
 10 11  4  0  0  0  0
 11 12  4  0  0  0  0
 12 13  4  0  0  0  0
 13 14  4  0  0  0  0
 14 15  4  0  0  0  0
 10 15  4  0  0  0  0
M  END

> <ChembankId>
1424515

> <SMILES>
CCN1C(=O)NC(C1=O)c2ccccc2

> <InChI>
1/C11H12N2O2/c1-2-13-10(14)9(12-11(13)15)8-6-4-3-5-7-8/h3-7,9H,2H2,1H3,(H,12,15)

$$$$
907320
  Marvin  11101114192D          

 28 30  0  0  0  0            999 V2000
   -0.9210   -1.7487    0.0000 C   0  0  0  0  0  0  0  0  0  0  0  0
   -0.7495   -2.5556    0.0000 C   0  0  0  0  0  0  0  0  0  0  0  0
    0.0351   -2.8106    0.0000 C   0  0  0  0  0  0  0  0  0  0  0  0
   -1.3626   -3.1077    0.0000 C   0  0  0  0  0  0  0  0  0  0  0  0
   -1.2763   -3.9282    0.0000 C   0  0  0  0  0  0  0  0  0  0  0  0
   -0.5619   -4.3407    0.0000 C   0  0  0  0  0  0  0  0  0  0  0  0
    0.1526   -3.9282    0.0000 N   0  0  0  0  0  0  0  0  0  0  0  0
    0.1526   -3.1032    0.0000 C   0  0  0  0  0  0  0  0  0  0  0  0
    0.8671   -4.3407    0.0000 C   0  0  0  0  0  0  0  0  0  0  0  0
    0.8671   -5.1657    0.0000 C   0  0  0  0  0  0  0  0  0  0  0  0
    1.5815   -3.9282    0.0000 C   0  0  0  0  0  0  0  0  0  0  0  0
    2.2960   -4.3407    0.0000 C   0  0  0  0  0  0  0  0  0  0  0  0
    3.0105   -3.9282    0.0000 C   0  0  0  0  0  0  0  0  0  0  0  0
    3.7250   -4.3407    0.0000 C   0  0  0  0  0  0  0  0  0  0  0  0
    3.7250   -5.1657    0.0000 C   0  0  0  0  0  0  0  0  0  0  0  0
    3.0105   -5.5782    0.0000 C   0  0  0  0  0  0  0  0  0  0  0  0
    2.2960   -5.1657    0.0000 C   0  0  0  0  0  0  0  0  0  0  0  0
   -2.0300   -4.2637    0.0000 N   0  0  0  0  0  0  0  0  0  0  0  0
   -2.2015   -5.0707    0.0000 C   0  0  0  0  0  0  0  0  0  0  0  0
   -2.5820   -3.6506    0.0000 N   0  0  0  0  0  0  0  0  0  0  0  0
   -3.4025   -3.7369    0.0000 C   0  0  0  0  0  0  0  0  0  0  0  0
   -3.7381   -4.4905    0.0000 C   0  0  0  0  0  0  0  0  0  0  0  0
   -4.5586   -4.5768    0.0000 C   0  0  0  0  0  0  0  0  0  0  0  0
   -5.0435   -3.9093    0.0000 C   0  0  0  0  0  0  0  0  0  0  0  0
   -4.7079   -3.1557    0.0000 C   0  0  0  0  0  0  0  0  0  0  0  0
   -3.8874   -3.0694    0.0000 C   0  0  0  0  0  0  0  0  0  0  0  0
   -2.1695   -2.9362    0.0000 C   0  0  0  0  0  0  0  0  0  0  0  0
   -2.5051   -2.1825    0.0000 O   0  0  0  0  0  0  0  0  0  0  0  0
  1  2  1  0  0  0  0
  2  3  1  0  0  0  0
  2  4  1  0  0  0  0
  4  5  4  0  0  0  0
  5  6  1  0  0  0  0
  6  7  1  0  0  0  0
  7  8  1  0  0  0  0
  7  9  1  0  0  0  0
  9 10  1  0  0  0  0
  9 11  1  0  0  0  0
 11 12  1  0  0  0  0
 12 13  4  0  0  0  0
 13 14  4  0  0  0  0
 14 15  4  0  0  0  0
 15 16  4  0  0  0  0
 16 17  4  0  0  0  0
 12 17  4  0  0  0  0
  5 18  4  0  0  0  0
 18 19  1  0  0  0  0
 18 20  4  0  0  0  0
 20 21  1  0  0  0  0
 21 22  4  0  0  0  0
 22 23  4  0  0  0  0
 23 24  4  0  0  0  0
 24 25  4  0  0  0  0
 25 26  4  0  0  0  0
 21 26  4  0  0  0  0
 20 27  4  0  0  0  0
  4 27  4  0  0  0  0
 27 28  2  0  0  0  0
M  END

> <ChembankId>
907320

> <SMILES>
CC(C)c1c(CN(C)C(C)Cc2ccccc2)n(C)n(c3ccccc3)c1=O

> <InChI>
1/C24H31N3O/c1-18(2)23-22(17-25(4)19(3)16-20-12-8-6-9-13-20)26(5)27(24(23)28)21-14-10-7-11-15-21/h6-15,18-19H,16-17H2,1-5H3

$$$$
3187754
  Marvin  11101114192D          

 34 34  0  0  0  0            999 V2000
   -2.9678    0.1904    0.0000 C   0  0  0  0  0  0  0  0  0  0  0  0
   -2.2533   -0.2221    0.0000 N   0  0  0  0  0  0  0  0  0  0  0  0
   -1.5389    0.1904    0.0000 C   0  0  0  0  0  0  0  0  0  0  0  0
   -0.8244   -0.2221    0.0000 C   0  0  0  0  0  0  0  0  0  0  0  0
   -0.8244   -1.0471    0.0000 O   0  0  0  0  0  0  0  0  0  0  0  0
   -0.1099    0.1904    0.0000 C   0  0  0  0  0  0  0  0  0  0  0  0
   -0.1099    1.0154    0.0000 O   0  0  0  0  0  0  0  0  0  0  0  0
    0.6046   -0.2221    0.0000 C   0  0  0  0  0  0  0  0  0  0  0  0
    0.6046   -1.0471    0.0000 O   0  0  0  0  0  0  0  0  0  0  0  0
    1.3190    0.1904    0.0000 C   0  0  0  0  0  0  0  0  0  0  0  0
    1.3190    1.0154    0.0000 O   0  0  0  0  0  0  0  0  0  0  0  0
    2.0335   -0.2221    0.0000 C   0  0  0  0  0  0  0  0  0  0  0  0
    2.7480    0.1904    0.0000 O   0  0  0  0  0  0  0  0  0  0  0  0
    8.4417    1.0804    0.0000 C   0  0  0  0  0  0  0  0  0  0  0  0
    8.4417    0.2554    0.0000 C   0  0  0  0  0  0  0  0  0  0  0  0
    7.7273   -0.1571    0.0000 C   0  0  0  0  0  0  0  0  0  0  0  0
    7.0128    0.2554    0.0000 N   0  0  0  0  0  0  0  0  0  0  0  0
    6.2983   -0.1571    0.0000 C   0  0  0  0  0  0  0  0  0  0  0  0
    6.2983   -0.9821    0.0000 N   0  0  0  0  0  0  0  0  0  0  0  0
    5.5839   -1.3946    0.0000 C   0  0  0  0  0  0  0  0  0  0  0  0
    4.8694   -0.9821    0.0000 C   0  0  0  0  0  0  0  0  0  0  0  0
    4.8694   -0.1571    0.0000 C   0  0  0  0  0  0  0  0  0  0  0  0
    5.5839    0.2554    0.0000 C   0  0  0  0  0  0  0  0  0  0  0  0
    5.5839    1.0804    0.0000 C   0  0  0  0  0  0  0  0  0  0  0  0
    6.2983    1.4929    0.0000 O   0  0  0  0  0  0  0  0  0  0  0  0
    4.8694    1.4929    0.0000 O   0  0  0  0  0  0  0  0  0  0  0  0
    7.7273   -0.9821    0.0000 C   0  0  0  0  0  0  0  0  0  0  0  0
    8.4417   -1.3946    0.0000 C   0  0  0  0  0  0  0  0  0  0  0  0
    9.1562   -0.9821    0.0000 C   0  0  0  0  0  0  0  0  0  0  0  0
    9.1562   -0.1571    0.0000 C   0  0  0  0  0  0  0  0  0  0  0  0
    9.8707    0.2554    0.0000 C   0  0  0  0  0  0  0  0  0  0  0  0
   10.5852    0.6679    0.0000 F   0  0  0  0  0  0  0  0  0  0  0  0
    9.4582    0.9698    0.0000 F   0  0  0  0  0  0  0  0  0  0  0  0
   10.2832   -0.4591    0.0000 F   0  0  0  0  0  0  0  0  0  0  0  0
  1  2  1  0  0  0  0
  2  3  1  0  0  0  0
  3  4  1  0  0  0  0
  4  5  1  0  0  0  0
  4  6  1  0  0  0  0
  6  7  1  0  0  0  0
  6  8  1  0  0  0  0
  8  9  1  0  0  0  0
  8 10  1  0  0  0  0
 10 11  1  0  0  0  0
 10 12  1  0  0  0  0
 12 13  1  0  0  0  0
 14 15  1  0  0  0  0
 15 16  4  0  0  0  0
 16 17  1  0  0  0  0
 17 18  1  0  0  0  0
 18 19  4  0  0  0  0
 19 20  4  0  0  0  0
 20 21  4  0  0  0  0
 21 22  4  0  0  0  0
 22 23  4  0  0  0  0
 18 23  4  0  0  0  0
 23 24  1  0  0  0  0
 24 25  2  0  0  0  0
 24 26  1  0  0  0  0
 16 27  4  0  0  0  0
 27 28  4  0  0  0  0
 28 29  4  0  0  0  0
 29 30  4  0  0  0  0
 15 30  4  0  0  0  0
 30 31  1  0  0  0  0
 31 32  1  0  0  0  0
 31 33  1  0  0  0  0
 31 34  1  0  0  0  0
M  END

> <ChembankId>
3187754

> <SMILES>
CNCC(O)C(O)C(O)C(O)CO.Cc1c(Nc2ncccc2C(=O)O)cccc1C(F)(F)F

> <InChI>
1/C14H11F3N2O2.C7H17NO5/c1-8-10(14(15,16)17)5-2-6-11(8)19-12-9(13(20)21)4-3-7-18-12;1-8-2-4(10)6(12)7(13)5(11)3-9/h2-7H,1H3,(H,18,19)(H,20,21);4-13H,2-3H2,1H3

$$$$
3069580
  Marvin  11101114192D          

 23 25  0  0  0  0            999 V2000
    1.9810   -2.6869    0.0000 C   0  0  0  0  0  0  0  0  0  0  0  0
    1.4289   -3.3000    0.0000 N   0  3  0  0  0  0  0  0  0  0  0  0
    0.8769   -2.6869    0.0000 C   0  0  0  0  0  0  0  0  0  0  0  0
    2.0964   -3.7849    0.0000 C   0  0  0  0  0  0  0  0  0  0  0  0
    1.8414   -4.5695    0.0000 C   0  0  0  0  0  0  0  0  0  0  0  0
    1.0164   -4.5695    0.0000 C   0  0  0  0  0  0  0  0  0  0  0  0
    0.7615   -3.7849    0.0000 C   0  0  0  0  0  0  0  0  0  0  0  0
    0.5315   -5.2370    0.0000 O   0  0  0  0  0  0  0  0  0  0  0  0
    0.8671   -5.9907    0.0000 C   0  0  0  0  0  0  0  0  0  0  0  0
    1.6876   -6.0769    0.0000 O   0  0  0  0  0  0  0  0  0  0  0  0
    0.3822   -6.6581    0.0000 C   0  0  0  0  0  0  0  0  0  0  0  0
   -0.2853   -6.1732    0.0000 O   0  0  0  0  0  0  0  0  0  0  0  0
    1.0496   -7.1430    0.0000 C   0  0  0  0  0  0  0  0  0  0  0  0
    1.8342   -6.8881    0.0000 C   0  0  0  0  0  0  0  0  0  0  0  0
    2.3191   -7.5555    0.0000 C   0  0  0  0  0  0  0  0  0  0  0  0
    1.8342   -8.2230    0.0000 C   0  0  0  0  0  0  0  0  0  0  0  0
    1.0496   -7.9680    0.0000 C   0  0  0  0  0  0  0  0  0  0  0  0
   -0.1028   -7.3255    0.0000 C   0  0  0  0  0  0  0  0  0  0  0  0
    0.2328   -8.0792    0.0000 C   0  0  0  0  0  0  0  0  0  0  0  0
   -0.2521   -8.7467    0.0000 C   0  0  0  0  0  0  0  0  0  0  0  0
   -1.0726   -8.6604    0.0000 C   0  0  0  0  0  0  0  0  0  0  0  0
   -1.4082   -7.9067    0.0000 C   0  0  0  0  0  0  0  0  0  0  0  0
   -0.9232   -7.2393    0.0000 C   0  0  0  0  0  0  0  0  0  0  0  0
  1  2  1  0  0  0  0
  2  3  1  0  0  0  0
  2  4  1  0  0  0  0
  4  5  1  0  0  0  0
  5  6  1  0  0  0  0
  6  7  1  0  0  0  0
  2  7  1  0  0  0  0
  6  8  1  0  0  0  0
  8  9  1  0  0  0  0
  9 10  2  0  0  0  0
  9 11  1  0  0  0  0
 11 12  1  0  0  0  0
 11 13  1  0  0  0  0
 13 14  1  0  0  0  0
 14 15  1  0  0  0  0
 15 16  1  0  0  0  0
 16 17  1  0  0  0  0
 13 17  1  0  0  0  0
 11 18  1  0  0  0  0
 18 19  4  0  0  0  0
 19 20  4  0  0  0  0
 20 21  4  0  0  0  0
 21 22  4  0  0  0  0
 22 23  4  0  0  0  0
 18 23  4  0  0  0  0
M  CHG  1   2   1
M  END

> <ChembankId>
3069580

> <SMILES>
C[N+]1(C)CCC(C1)OC(=O)C(O)(C2CCCC2)c3ccccc3

> <InChI>
1/C19H28NO3/c1-20(2)13-12-17(14-20)23-18(21)19(22,16-10-6-7-11-16)15-8-4-3-5-9-15/h3-5,8-9,16-17,22H,6-7,10-14H2,1-2H3/q+1

$$$$
963
  Marvin  11101114192D          

 36 39  0  0  1  0            999 V2000
    0.5218   -6.2507    0.0000 C   0  0  0  0  0  0  0  0  0  0  0  0
    0.5218   -5.4257    0.0000 C   0  0  0  0  0  0  0  0  0  0  0  0
    1.2362   -5.0132    0.0000 N   0  0  0  0  0  0  0  0  0  0  0  0
    1.2362   -4.1882    0.0000 C   0  0  0  0  0  0  0  0  0  0  0  0
    1.9507   -3.7757    0.0000 C   0  0  0  0  0  0  0  0  0  0  0  0
    2.6652   -4.1882    0.0000 N   0  0  0  0  0  0  0  0  0  0  0  0
    3.3796   -3.7757    0.0000 C   0  0  0  0  0  0  0  0  0  0  0  0
    3.3796   -2.9507    0.0000 O   0  0  0  0  0  0  0  0  0  0  0  0
    4.0941   -4.1882    0.0000 N   0  0  0  0  0  0  0  0  0  0  0  0
    4.8086   -3.7757    0.0000 C   0  0  1  0  0  0  0  0  0  0  0  0
    5.5231   -4.1882    0.0000 C   0  0  0  0  0  0  0  0  0  0  0  0
    5.5231   -5.0132    0.0000 O   0  0  0  0  0  0  0  0  0  0  0  0
    6.2375   -3.7757    0.0000 N   0  0  0  0  0  0  0  0  0  0  0  0
    6.9520   -4.1882    0.0000 C   0  0  1  0  0  0  0  0  0  0  0  0
    7.7489   -3.9747    0.0000 C   0  0  1  0  0  0  0  0  0  0  0  0
    8.4408   -3.5253    0.0000 S   0  0  0  0  0  0  0  0  0  0  0  0
    9.0819   -4.0445    0.0000 C   0  0  0  0  0  0  0  0  0  0  0  0
    9.5313   -3.3526    0.0000 C   0  0  0  0  0  0  0  0  0  0  0  0
    9.8170   -4.4191    0.0000 C   0  0  0  0  0  0  0  0  0  0  0  0
    8.7863   -4.8147    0.0000 C   0  0  1  0  0  0  0  0  0  0  0  0
    7.9624   -4.7716    0.0000 N   0  0  0  0  0  0  0  0  0  0  0  0
    7.1655   -4.9851    0.0000 C   0  0  0  0  0  0  0  0  0  0  0  0
    6.7530   -5.6996    0.0000 O   0  0  0  0  0  0  0  0  0  0  0  0
    9.2356   -5.5066    0.0000 C   0  0  0  0  0  0  0  0  0  0  0  0
   10.0595   -5.4635    0.0000 O   0  0  0  0  0  0  0  0  0  0  0  0
    8.8611   -6.2417    0.0000 O   0  0  0  0  0  0  0  0  0  0  0  0
    4.8086   -2.9507    0.0000 C   0  0  0  0  0  0  0  0  0  0  0  0
    4.0941   -2.5382    0.0000 C   0  0  0  0  0  0  0  0  0  0  0  0
    4.0941   -1.7132    0.0000 C   0  0  0  0  0  0  0  0  0  0  0  0
    4.8086   -1.3007    0.0000 C   0  0  0  0  0  0  0  0  0  0  0  0
    5.5231   -1.7132    0.0000 C   0  0  0  0  0  0  0  0  0  0  0  0
    5.5231   -2.5382    0.0000 C   0  0  0  0  0  0  0  0  0  0  0  0
    2.6652   -5.0132    0.0000 C   0  0  0  0  0  0  0  0  0  0  0  0
    3.3796   -5.4257    0.0000 O   0  0  0  0  0  0  0  0  0  0  0  0
    1.9507   -5.4257    0.0000 C   0  0  0  0  0  0  0  0  0  0  0  0
    1.9507   -6.2507    0.0000 O   0  0  0  0  0  0  0  0  0  0  0  0
  1  2  1  0  0  0  0
  2  3  1  0  0  0  0
  3  4  1  0  0  0  0
  4  5  1  0  0  0  0
  5  6  1  0  0  0  0
  6  7  1  0  0  0  0
  7  8  2  0  0  0  0
  7  9  1  0  0  0  0
 10  9  1  6  0  0  0
 10 11  1  0  0  0  0
 11 12  2  0  0  0  0
 11 13  1  0  0  0  0
 14 13  1  1  0  0  0
 14 15  1  0  0  0  0
 15 16  1  0  0  0  0
 16 17  1  0  0  0  0
 17 18  1  0  0  0  0
 17 19  1  0  0  0  0
 17 20  1  0  0  0  0
 20 21  1  0  0  0  0
 15 21  1  1  0  0  0
 21 22  1  0  0  0  0
 14 22  1  0  0  0  0
 22 23  2  0  0  0  0
 20 24  1  6  0  0  0
 24 25  2  0  0  0  0
 24 26  1  0  0  0  0
 10 27  1  0  0  0  0
 27 28  4  0  0  0  0
 28 29  4  0  0  0  0
 29 30  4  0  0  0  0
 30 31  4  0  0  0  0
 31 32  4  0  0  0  0
 27 32  4  0  0  0  0
  6 33  1  0  0  0  0
 33 34  2  0  0  0  0
 33 35  1  0  0  0  0
  3 35  1  0  0  0  0
 35 36  2  0  0  0  0
M  END

> <ChembankId>
963

> <SMILES>
CCN1CCN(C(=O)N[C@@H](C(=O)N[C@H]2[C@H]3SC(C)(C)[C@@H](N3C2=O)C(=O)O)c4ccccc4)C(=O)C1=O

> <InChI>
1/C23H27N5O7S/c1-4-26-10-11-27(19(32)18(26)31)22(35)25-13(12-8-6-5-7-9-12)16(29)24-14-17(30)28-15(21(33)34)23(2,3)36-20(14)28/h5-9,13-15,20H,4,10-11H2,1-3H3,(H,24,29)(H,25,35)(H,33,34)

$$$$
3187758
  Marvin  11101114192D          

 15 16  0  0  0  0            999 V2000
   -2.8422   -0.2987    0.0000 N   0  0  0  0  0  0  0  0  0  0  0  0
   -2.0886   -0.6343    0.0000 C   0  0  0  0  0  0  0  0  0  0  0  0
   -2.0023   -1.4548    0.0000 N   0  0  0  0  0  0  0  0  0  0  0  0
   -1.4211   -0.1494    0.0000 N   0  0  0  0  0  0  0  0  0  0  0  0
   -0.6674   -0.4849    0.0000 C   0  0  0  0  0  0  0  0  0  0  0  0
   -0.0000    0.0000    0.0000 C   0  0  0  0  0  0  0  0  0  0  0  0
   -0.0000    0.8250    0.0000 C   0  0  0  0  0  0  0  0  0  0  0  0
    0.7846    1.0799    0.0000 O   0  0  0  0  0  0  0  0  0  0  0  0
    1.2695    0.4125    0.0000 C   0  0  0  0  0  0  0  0  0  0  0  0
    1.6820    1.1270    0.0000 C   0  0  0  0  0  0  0  0  0  0  0  0
    2.5070    1.1270    0.0000 C   0  0  0  0  0  0  0  0  0  0  0  0
    2.9195    0.4125    0.0000 C   0  0  0  0  0  0  0  0  0  0  0  0
    2.5070   -0.3020    0.0000 C   0  0  0  0  0  0  0  0  0  0  0  0
    1.6820   -0.3020    0.0000 C   0  0  0  0  0  0  0  0  0  0  0  0
    0.7846   -0.2549    0.0000 O   0  0  0  0  0  0  0  0  0  0  0  0
  1  2  1  0  0  0  0
  2  3  2  0  0  0  0
  2  4  1  0  0  0  0
  4  5  1  0  0  0  0
  5  6  1  0  0  0  0
  6  7  1  0  0  0  0
  7  8  1  0  0  0  0
  8  9  1  0  0  0  0
  9 10  1  0  0  0  0
 10 11  1  0  0  0  0
 11 12  1  0  0  0  0
 12 13  1  0  0  0  0
 13 14  1  0  0  0  0
  9 14  1  0  0  0  0
  9 15  1  0  0  0  0
  6 15  1  0  0  0  0
M  END

> <ChembankId>
3187758

> <SMILES>
NC(=N)NCC1COC2(CCCCC2)O1

> <InChI>
1/C10H19N3O2/c11-9(12)13-6-8-7-14-10(15-8)4-2-1-3-5-10/h8H,1-7H2,(H4,11,12,13)

$$$$
3187759
  Marvin  11101114192D          

 36 39  0  0  1  0            999 V2000
    5.6144   -4.2645    0.0000 C   0  0  0  0  0  0  0  0  0  0  0  0
    6.3289   -4.6770    0.0000 C   0  0  0  0  0  0  0  0  0  0  0  0
    7.0433   -4.2645    0.0000 C   0  0  0  0  0  0  0  0  0  0  0  0
    7.0433   -3.4395    0.0000 O   0  0  0  0  0  0  0  0  0  0  0  0
    7.7578   -4.6770    0.0000 O   0  0  0  0  0  0  0  0  0  0  0  0
    8.4723   -4.2645    0.0000 C   0  0  0  0  0  0  0  0  0  0  0  0
    9.1867   -4.6770    0.0000 C   0  0  0  0  0  0  0  0  0  0  0  0
    9.1867   -5.5020    0.0000 O   0  0  0  0  0  0  0  0  0  0  0  0
    9.9012   -4.2645    0.0000 C   0  0  0  0  0  0  0  0  0  0  0  0
   10.2368   -5.0182    0.0000 O   0  0  0  0  0  0  0  0  0  0  0  0
    9.7519   -5.6856    0.0000 C   0  0  0  0  0  0  0  0  0  0  0  0
    8.9449   -5.8572    0.0000 O   0  0  0  0  0  0  0  0  0  0  0  0
   10.0874   -6.4393    0.0000 C   0  0  0  0  0  0  0  0  0  0  0  0
    9.6025   -7.1068    0.0000 C   0  0  0  0  0  0  0  0  0  0  0  0
    9.4163   -3.5971    0.0000 C   0  0  2  0  0  0  0  0  0  0  0  0
    8.5913   -3.5971    0.0000 C   0  0  0  0  0  0  0  0  0  0  0  0
    9.9012   -2.9297    0.0000 C   0  0  0  0  0  0  0  0  0  0  0  0
   10.6858   -3.1846    0.0000 C   0  0  1  0  0  0  0  0  0  0  0  0
   11.4003   -2.7721    0.0000 C   0  0  0  0  0  0  0  0  0  0  0  0
   11.4003   -1.9471    0.0000 C   0  0  2  0  0  0  0  0  0  0  0  0
   10.6858   -1.5346    0.0000 Cl  0  0  0  0  0  0  0  0  0  0  0  0
   12.1148   -1.5346    0.0000 C   0  0  0  0  0  0  0  0  0  0  0  0
   12.8293   -1.9471    0.0000 C   0  0  0  0  0  0  0  0  0  0  0  0
   13.5437   -1.5346    0.0000 C   0  0  0  0  0  0  0  0  0  0  0  0
   14.2582   -1.9471    0.0000 C   0  0  0  0  0  0  0  0  0  0  0  0
   14.9727   -1.5346    0.0000 O   0  0  0  0  0  0  0  0  0  0  0  0
   14.2582   -2.7721    0.0000 C   0  0  0  0  0  0  0  0  0  0  0  0
   13.5437   -3.1846    0.0000 C   0  0  0  0  0  0  0  0  0  0  0  0
   12.8293   -2.7721    0.0000 C   0  0  1  0  0  0  0  0  0  0  0  0
   12.8293   -3.5971    0.0000 C   0  0  0  0  0  0  0  0  0  0  0  0
   12.1148   -3.1846    0.0000 C   0  0  0  0  0  0  0  0  0  0  0  0
   12.1148   -4.0096    0.0000 C   0  0  1  0  0  0  0  0  0  0  0  0
   12.8293   -4.4221    0.0000 O   0  0  0  0  0  0  0  0  0  0  0  0
   11.4003   -4.4221    0.0000 C   0  0  0  0  0  0  0  0  0  0  0  0
   10.6858   -4.0096    0.0000 C   0  0  2  0  0  0  0  0  0  0  0  0
   10.5996   -4.8301    0.0000 C   0  0  0  0  0  0  0  0  0  0  0  0
  1  2  1  0  0  0  0
  2  3  1  0  0  0  0
  3  4  2  0  0  0  0
  3  5  1  0  0  0  0
  5  6  1  0  0  0  0
  6  7  1  0  0  0  0
  7  8  2  0  0  0  0
  7  9  1  0  0  0  0
  9 10  1  0  0  0  0
 10 11  1  0  0  0  0
 11 12  2  0  0  0  0
 11 13  1  0  0  0  0
 13 14  1  0  0  0  0
  9 15  1  0  0  0  0
 15 16  1  6  0  0  0
 15 17  1  0  0  0  0
 18 17  1  1  0  0  0
 18 19  1  0  0  0  0
 19 20  1  0  0  0  0
 20 21  1  6  0  0  0
 20 22  1  0  0  0  0
 22 23  1  0  0  0  0
 23 24  2  0  0  0  0
 24 25  1  0  0  0  0
 25 26  2  0  0  0  0
 25 27  1  0  0  0  0
 27 28  2  0  0  0  0
 28 29  1  0  0  0  0
 23 29  1  0  0  0  0
 29 30  1  1  0  0  0
 29 31  1  0  0  0  0
 19 31  1  0  0  0  0
 31 32  1  0  0  0  0
 32 33  1  1  0  0  0
 32 34  1  0  0  0  0
 34 35  1  0  0  0  0
 18 35  1  0  0  0  0
  9 35  1  0  0  0  0
 35 36  1  1  0  0  0
M  END

> <ChembankId>
3187759

> <SMILES>
CCC(=O)OCC(=O)C1(OC(=O)CC)[C@H](C)C[C@H]2[C@@H]3[C@H](Cl)CC4=CC(=O)C=C[C@]4(C)[C@H]3[C@@H](O)C[C@@]21C

> <InChI>
1/C28H37ClO7/c1-6-22(33)35-14-21(32)28(36-23(34)7-2)15(3)10-18-24-19(29)12-16-11-17(30)8-9-26(16,4)25(24)20(31)13-27(18,28)5/h8-9,11,15,18-20,24-25,31H,6-7,10,12-14H2,1-5H3

$$$$
3069624
  Marvin  11101114192D          

 23 26  0  0  1  0            999 V2000
    3.9959   -3.9415    0.0000 C   0  0  0  0  0  0  0  0  0  0  0  0
    3.5330   -3.2587    0.0000 C   0  0  0  0  0  0  0  0  0  0  0  0
    3.8928   -2.5163    0.0000 C   0  0  2  0  0  0  0  0  0  0  0  0
    4.4247   -3.1470    0.0000 C   0  0  0  0  0  0  0  0  0  0  0  0
    5.2368   -3.0018    0.0000 C   0  0  0  0  0  0  0  0  0  0  0  0
    5.5171   -2.2259    0.0000 C   0  0  1  0  0  0  0  0  0  0  0  0
    4.9853   -1.5952    0.0000 C   0  0  1  0  0  0  0  0  0  0  0  0
    5.2655   -0.8192    0.0000 C   0  0  0  0  0  0  0  0  0  0  0  0
    6.0777   -0.6740    0.0000 C   0  0  0  0  0  0  0  0  0  0  0  0
    6.6095   -1.3047    0.0000 C   0  0  0  0  0  0  0  0  0  0  0  0
    7.4216   -1.1595    0.0000 C   0  0  0  0  0  0  0  0  0  0  0  0
    7.9534   -1.7902    0.0000 C   0  0  0  0  0  0  0  0  0  0  0  0
    8.7655   -1.6450    0.0000 O   0  0  0  0  0  0  0  0  0  0  0  0
    7.6731   -2.5662    0.0000 C   0  0  0  0  0  0  0  0  0  0  0  0
    6.8610   -2.7114    0.0000 C   0  0  0  0  0  0  0  0  0  0  0  0
    6.3292   -2.0807    0.0000 C   0  0  2  0  0  0  0  0  0  0  0  0
    4.1731   -1.7404    0.0000 C   0  0  2  0  0  0  0  0  0  0  0  0
    3.5218   -1.2340    0.0000 C   0  0  0  0  0  0  0  0  0  0  0  0
    2.8390   -1.6970    0.0000 C   0  0  0  0  0  0  0  0  0  0  0  0
    3.0683   -2.4895    0.0000 C   0  0  2  0  0  0  0  0  0  0  0  0
    2.3074   -2.8084    0.0000 O   0  0  0  0  0  0  0  0  0  0  0  0
    2.9469   -3.3055    0.0000 C   0  0  0  0  0  0  0  0  0  0  0  0
    2.8255   -4.1215    0.0000 C   0  0  0  0  0  0  0  0  0  0  0  0
  1  2  1  0  0  0  0
  3  2  1  1  0  0  0
  3  4  1  0  0  0  0
  4  5  1  0  0  0  0
  6  5  1  1  0  0  0
  6  7  1  0  0  0  0
  7  8  1  6  0  0  0
  8  9  1  0  0  0  0
  9 10  1  0  0  0  0
 10 11  2  0  0  0  0
 11 12  1  0  0  0  0
 12 13  2  0  0  0  0
 12 14  1  0  0  0  0
 14 15  1  0  0  0  0
 15 16  1  0  0  0  0
  6 16  1  0  0  0  0
 16 10  1  6  0  0  0
  7 17  1  0  0  0  0
  3 17  1  0  0  0  0
 17 18  1  1  0  0  0
 18 19  1  0  0  0  0
 19 20  1  0  0  0  0
  3 20  1  0  0  0  0
 20 21  1  1  0  0  0
 20 22  1  6  0  0  0
 22 23  3  0  0  0  0
M  END

> <ChembankId>
3069624

> <SMILES>
CC[C@@]12CC[C@H]3[C@@H](CCC4=CC(=O)CC[C@H]34)[C@@H]2CC[C@@]1(O)C#C

> <InChI>
1/C21H28O2/c1-3-20-11-9-17-16-8-6-15(22)13-14(16)5-7-18(17)19(20)10-12-21(20,23)4-2/h2,13,16-19,23H,3,5-12H2,1H3

$$$$
3092
  Marvin  11101114192D          

  7  7  0  0  0  0            999 V2000
    2.0198    0.8843    0.0000 C   0  0  0  0  0  0  0  0  0  0  0  0
    1.2352    0.6294    0.0000 N   0  0  0  0  0  0  0  0  0  0  0  0
    0.9803   -0.1553    0.0000 C   0  0  0  0  0  0  0  0  0  0  0  0
    0.1553   -0.1553    0.0000 C   0  0  0  0  0  0  0  0  0  0  0  0
   -0.0997    0.6294    0.0000 N   0  0  0  0  0  0  0  0  0  0  0  0
    0.5678    1.1143    0.0000 C   0  0  0  0  0  0  0  0  0  0  0  0
    0.5678    1.9393    0.0000 S   0  0  0  0  0  0  0  0  0  0  0  0
  1  2  1  0  0  0  0
  2  3  4  0  0  0  0
  3  4  4  0  0  0  0
  4  5  4  0  0  0  0
  5  6  4  0  0  0  0
  2  6  4  0  0  0  0
  6  7  1  0  0  0  0
M  END

> <ChembankId>
3092

> <SMILES>
Cn1ccnc1S

> <InChI>
1/C4H6N2S/c1-6-3-2-5-4(6)7/h2-3H,1H3,(H,5,7)

$$$$
3187761
  Marvin  11101114192D          

 19 20  0  0  0  0            999 V2000
    3.5724   -2.8875    0.0000 C   0  0  0  0  0  0  0  0  0  0  0  0
    3.5724   -3.7125    0.0000 C   0  0  0  0  0  0  0  0  0  0  0  0
    2.8579   -4.1250    0.0000 C   0  0  0  0  0  0  0  0  0  0  0  0
    2.1434   -3.7125    0.0000 N   0  0  0  0  0  0  0  0  0  0  0  0
    1.4289   -4.1250    0.0000 C   0  0  0  0  0  0  0  0  0  0  0  0
    1.4289   -4.9500    0.0000 C   0  0  0  0  0  0  0  0  0  0  0  0
    0.7145   -5.3625    0.0000 C   0  0  0  0  0  0  0  0  0  0  0  0
    0.0000   -4.9500    0.0000 C   0  0  0  0  0  0  0  0  0  0  0  0
    0.0000   -4.1250    0.0000 C   0  0  0  0  0  0  0  0  0  0  0  0
    0.7145   -3.7125    0.0000 C   0  0  0  0  0  0  0  0  0  0  0  0
    4.2868   -4.1250    0.0000 O   0  0  0  0  0  0  0  0  0  0  0  0
    5.0013   -3.7125    0.0000 C   0  0  0  0  0  0  0  0  0  0  0  0
    5.0013   -2.8875    0.0000 O   0  0  0  0  0  0  0  0  0  0  0  0
    5.7158   -4.1250    0.0000 C   0  0  0  0  0  0  0  0  0  0  0  0
    6.4302   -3.7125    0.0000 C   0  0  0  0  0  0  0  0  0  0  0  0
    7.1447   -4.1250    0.0000 C   0  0  0  0  0  0  0  0  0  0  0  0
    7.1447   -4.9500    0.0000 C   0  0  0  0  0  0  0  0  0  0  0  0
    6.4302   -5.3625    0.0000 C   0  0  0  0  0  0  0  0  0  0  0  0
    5.7158   -4.9500    0.0000 C   0  0  0  0  0  0  0  0  0  0  0  0
  1  2  1  0  0  0  0
  2  3  1  0  0  0  0
  3  4  1  0  0  0  0
  4  5  1  0  0  0  0
  5  6  1  0  0  0  0
  6  7  1  0  0  0  0
  7  8  1  0  0  0  0
  8  9  1  0  0  0  0
  9 10  1  0  0  0  0
  5 10  1  0  0  0  0
  2 11  1  0  0  0  0
 11 12  1  0  0  0  0
 12 13  2  0  0  0  0
 12 14  1  0  0  0  0
 14 15  4  0  0  0  0
 15 16  4  0  0  0  0
 16 17  4  0  0  0  0
 17 18  4  0  0  0  0
 18 19  4  0  0  0  0
 14 19  4  0  0  0  0
M  END

> <ChembankId>
3187761

> <SMILES>
CC(CNC1CCCCC1)OC(=O)c2ccccc2

> <InChI>
1/C16H23NO2/c1-13(12-17-15-10-6-3-7-11-15)19-16(18)14-8-4-2-5-9-14/h2,4-5,8-9,13,15,17H,3,6-7,10-12H2,1H3

$$$$
3383
  Marvin  11101114192D          

 17 18  0  0  0  0            999 V2000
   -1.2288   -0.7293    0.0000 C   0  0  0  0  0  0  0  0  0  0  0  0
   -0.8932   -1.4830    0.0000 C   0  0  0  0  0  0  0  0  0  0  0  0
   -0.0862   -1.6545    0.0000 C   0  0  0  0  0  0  0  0  0  0  0  0
    0.0000   -2.4750    0.0000 C   0  0  0  0  0  0  0  0  0  0  0  0
   -0.7537   -2.8106    0.0000 N   0  0  0  0  0  0  0  0  0  0  0  0
   -1.3057   -2.1975    0.0000 O   0  0  0  0  0  0  0  0  0  0  0  0
    0.7145   -2.8875    0.0000 C   0  0  0  0  0  0  0  0  0  0  0  0
    0.7145   -3.7125    0.0000 O   0  0  0  0  0  0  0  0  0  0  0  0
    1.4289   -2.4750    0.0000 N   0  0  0  0  0  0  0  0  0  0  0  0
    2.1434   -2.8875    0.0000 N   0  0  0  0  0  0  0  0  0  0  0  0
    2.8579   -2.4750    0.0000 C   0  0  0  0  0  0  0  0  0  0  0  0
    3.5724   -2.8875    0.0000 C   0  0  0  0  0  0  0  0  0  0  0  0
    4.2868   -2.4750    0.0000 C   0  0  0  0  0  0  0  0  0  0  0  0
    5.0013   -2.8875    0.0000 C   0  0  0  0  0  0  0  0  0  0  0  0
    5.0013   -3.7125    0.0000 C   0  0  0  0  0  0  0  0  0  0  0  0
    4.2868   -4.1250    0.0000 C   0  0  0  0  0  0  0  0  0  0  0  0
    3.5724   -3.7125    0.0000 C   0  0  0  0  0  0  0  0  0  0  0  0
  1  2  1  0  0  0  0
  2  3  4  0  0  0  0
  3  4  4  0  0  0  0
  4  5  4  0  0  0  0
  5  6  4  0  0  0  0
  2  6  4  0  0  0  0
  4  7  1  0  0  0  0
  7  8  2  0  0  0  0
  7  9  1  0  0  0  0
  9 10  1  0  0  0  0
 10 11  1  0  0  0  0
 11 12  1  0  0  0  0
 12 13  4  0  0  0  0
 13 14  4  0  0  0  0
 14 15  4  0  0  0  0
 15 16  4  0  0  0  0
 16 17  4  0  0  0  0
 12 17  4  0  0  0  0
M  END

> <ChembankId>
3383

> <SMILES>
Cc1cc(no1)C(=O)NNCc2ccccc2

> <InChI>
1/C12H13N3O2/c1-9-7-11(15-17-9)12(16)14-13-8-10-5-3-2-4-6-10/h2-7,13H,8H2,1H3,(H,14,16)

$$$$
2752
  Marvin  11101114192D          

 23 25  0  0  1  0            999 V2000
    0.7145   -2.0625    0.0000 C   0  0  0  0  0  0  0  0  0  0  0  0
    1.4289   -1.6500    0.0000 O   0  0  0  0  0  0  0  0  0  0  0  0
    1.4289   -0.8250    0.0000 C   0  0  0  0  0  0  0  0  0  0  0  0
    0.7145   -0.4125    0.0000 C   0  0  0  0  0  0  0  0  0  0  0  0
    0.7145    0.4125    0.0000 C   0  0  0  0  0  0  0  0  0  0  0  0
    1.4289    0.8250    0.0000 C   0  0  0  0  0  0  0  0  0  0  0  0
    1.4289    1.6500    0.0000 S   0  0  0  0  0  0  0  0  0  0  0  0
    2.1434    2.0625    0.0000 C   0  0  0  0  0  0  0  0  0  0  0  0
    2.1434    2.8875    0.0000 C   0  0  0  0  0  0  0  0  0  0  0  0
    2.8579    3.3000    0.0000 C   0  0  0  0  0  0  0  0  0  0  0  0
    3.5724    2.8875    0.0000 C   0  0  0  0  0  0  0  0  0  0  0  0
    3.5724    2.0625    0.0000 C   0  0  0  0  0  0  0  0  0  0  0  0
    2.8579    1.6500    0.0000 C   0  0  0  0  0  0  0  0  0  0  0  0
    2.8579    0.8250    0.0000 N   0  0  0  0  0  0  0  0  0  0  0  0
    3.5724    0.4125    0.0000 C   0  0  0  0  0  0  0  0  0  0  0  0
    3.5724   -0.4125    0.0000 C   0  0  2  0  0  0  0  0  0  0  0  0
    2.8579   -0.8250    0.0000 C   0  0  0  0  0  0  0  0  0  0  0  0
    4.2868   -0.8250    0.0000 C   0  0  0  0  0  0  0  0  0  0  0  0
    5.0013   -0.4125    0.0000 N   0  0  0  0  0  0  0  0  0  0  0  0
    5.0013    0.4125    0.0000 C   0  0  0  0  0  0  0  0  0  0  0  0
    5.7158   -0.8250    0.0000 C   0  0  0  0  0  0  0  0  0  0  0  0
    2.1434    0.4125    0.0000 C   0  0  0  0  0  0  0  0  0  0  0  0
    2.1434   -0.4125    0.0000 C   0  0  0  0  0  0  0  0  0  0  0  0
  1  2  1  0  0  0  0
  2  3  1  0  0  0  0
  3  4  4  0  0  0  0
  4  5  4  0  0  0  0
  5  6  4  0  0  0  0
  6  7  1  0  0  0  0
  7  8  1  0  0  0  0
  8  9  4  0  0  0  0
  9 10  4  0  0  0  0
 10 11  4  0  0  0  0
 11 12  4  0  0  0  0
 12 13  4  0  0  0  0
  8 13  4  0  0  0  0
 13 14  1  0  0  0  0
 14 15  1  0  0  0  0
 15 16  1  0  0  0  0
 16 17  1  1  0  0  0
 16 18  1  0  0  0  0
 18 19  1  0  0  0  0
 19 20  1  0  0  0  0
 19 21  1  0  0  0  0
 14 22  1  0  0  0  0
  6 22  4  0  0  0  0
 22 23  4  0  0  0  0
  3 23  4  0  0  0  0
M  END

> <ChembankId>
2752

> <SMILES>
COc1ccc2Sc3ccccc3N(C[C@H](C)CN(C)C)c2c1

> <InChI>
1/C19H24N2OS/c1-14(12-20(2)3)13-21-16-7-5-6-8-18(16)23-19-10-9-15(22-4)11-17(19)21/h5-11,14H,12-13H2,1-4H3

$$$$
2570
  Marvin  11101114192D          

 16 16  0  0  0  0            999 V2000
    2.8579   -0.8250    0.0000 N   0  0  0  0  0  0  0  0  0  0  0  0
    2.1434   -0.4125    0.0000 S   0  0  0  0  0  0  0  0  0  0  0  0
    2.5559    0.3020    0.0000 O   0  0  0  0  0  0  0  0  0  0  0  0
    1.7309   -1.1270    0.0000 O   0  0  0  0  0  0  0  0  0  0  0  0
    1.4289   -0.0000    0.0000 C   0  0  0  0  0  0  0  0  0  0  0  0
    0.7145   -0.4125    0.0000 C   0  0  0  0  0  0  0  0  0  0  0  0
    0.0000   -0.0000    0.0000 C   0  0  0  0  0  0  0  0  0  0  0  0
   -0.7145   -0.4125    0.0000 Cl  0  0  0  0  0  0  0  0  0  0  0  0
    0.0000    0.8250    0.0000 C   0  0  0  0  0  0  0  0  0  0  0  0
   -0.7145    1.2375    0.0000 Cl  0  0  0  0  0  0  0  0  0  0  0  0
    0.7145    1.2375    0.0000 C   0  0  0  0  0  0  0  0  0  0  0  0
    1.4289    0.8250    0.0000 C   0  0  0  0  0  0  0  0  0  0  0  0
    0.7145    2.0625    0.0000 S   0  0  0  0  0  0  0  0  0  0  0  0
    0.7145    2.8875    0.0000 O   0  0  0  0  0  0  0  0  0  0  0  0
    1.5395    2.0625    0.0000 O   0  0  0  0  0  0  0  0  0  0  0  0
   -0.1105    2.0625    0.0000 N   0  0  0  0  0  0  0  0  0  0  0  0
  1  2  1  0  0  0  0
  2  3  2  0  0  0  0
  2  4  2  0  0  0  0
  2  5  1  0  0  0  0
  5  6  4  0  0  0  0
  6  7  4  0  0  0  0
  7  8  1  0  0  0  0
  7  9  4  0  0  0  0
  9 10  1  0  0  0  0
  9 11  4  0  0  0  0
 11 12  4  0  0  0  0
  5 12  4  0  0  0  0
 11 13  1  0  0  0  0
 13 14  2  0  0  0  0
 13 15  2  0  0  0  0
 13 16  1  0  0  0  0
M  END

> <ChembankId>
2570

> <SMILES>
NS(=O)(=O)c1cc(Cl)c(Cl)c(c1)S(=O)(=O)N

> <InChI>
1/C6H6Cl2N2O4S2/c7-4-1-3(15(9,11)12)2-5(6(4)8)16(10,13)14/h1-2H,(H2,9,11,12)(H2,10,13,14)

$$$$
1052436
  Marvin  11101114192D          

 18 19  0  0  0  0            999 V2000
   -1.7613   -4.5956    0.0000 C   0  0  0  0  0  0  0  0  0  0  0  0
   -1.0468   -5.0081    0.0000 C   0  0  0  0  0  0  0  0  0  0  0  0
   -0.3323   -4.5956    0.0000 N   0  0  0  0  0  0  0  0  0  0  0  0
   -0.3323   -3.7706    0.0000 C   0  0  0  0  0  0  0  0  0  0  0  0
    0.3822   -3.3581    0.0000 C   0  0  0  0  0  0  0  0  0  0  0  0
    0.3822   -5.0081    0.0000 C   0  0  0  0  0  0  0  0  0  0  0  0
    1.0966   -4.5956    0.0000 C   0  0  0  0  0  0  0  0  0  0  0  0
    1.8111   -5.0081    0.0000 C   0  0  0  0  0  0  0  0  0  0  0  0
    2.5648   -4.6725    0.0000 N   0  0  0  0  0  0  0  0  0  0  0  0
    3.1168   -5.2856    0.0000 C   0  0  0  0  0  0  0  0  0  0  0  0
    2.7043   -6.0001    0.0000 N   0  0  0  0  0  0  0  0  0  0  0  0
    1.8973   -5.8286    0.0000 O   0  0  0  0  0  0  0  0  0  0  0  0
    3.9373   -5.1994    0.0000 C   0  0  0  0  0  0  0  0  0  0  0  0
    4.2728   -4.4457    0.0000 C   0  0  0  0  0  0  0  0  0  0  0  0
    5.0933   -4.3595    0.0000 C   0  0  0  0  0  0  0  0  0  0  0  0
    5.5782   -5.0269    0.0000 C   0  0  0  0  0  0  0  0  0  0  0  0
    5.2427   -5.7806    0.0000 C   0  0  0  0  0  0  0  0  0  0  0  0
    4.4222   -5.8668    0.0000 C   0  0  0  0  0  0  0  0  0  0  0  0
  1  2  1  0  0  0  0
  2  3  1  0  0  0  0
  3  4  1  0  0  0  0
  4  5  1  0  0  0  0
  3  6  1  0  0  0  0
  6  7  1  0  0  0  0
  7  8  1  0  0  0  0
  8  9  4  0  0  0  0
  9 10  4  0  0  0  0
 10 11  4  0  0  0  0
 11 12  4  0  0  0  0
  8 12  4  0  0  0  0
 10 13  1  0  0  0  0
 13 14  4  0  0  0  0
 14 15  4  0  0  0  0
 15 16  4  0  0  0  0
 16 17  4  0  0  0  0
 17 18  4  0  0  0  0
 13 18  4  0  0  0  0
M  END

> <ChembankId>
1052436

> <SMILES>
CCN(CC)CCc1nc(no1)c2ccccc2

> <InChI>
1/C14H19N3O/c1-3-17(4-2)11-10-13-15-14(16-18-13)12-8-6-5-7-9-12/h5-9H,3-4,10-11H2,1-2H3

$$$$
1276
  Marvin  11101114192D          

 41 45  0  0  1  0            999 V2000
    6.8522    1.4091    0.0000 C   0  0  0  0  0  0  0  0  0  0  0  0
    6.0770    1.1270    0.0000 C   0  0  0  0  0  0  0  0  0  0  0  0
    5.9337    1.9394    0.0000 C   0  0  0  0  0  0  0  0  0  0  0  0
    6.4895    0.4125    0.0000 C   0  0  2  0  0  0  0  0  0  0  0  0
    6.0770   -0.3020    0.0000 C   0  0  0  0  0  0  0  0  0  0  0  0
    5.2520   -0.3020    0.0000 C   0  0  0  0  0  0  0  0  0  0  0  0
    4.8395    0.4125    0.0000 C   0  0  1  0  0  0  0  0  0  0  0  0
    4.4270   -0.3020    0.0000 C   0  0  0  0  0  0  0  0  0  0  0  0
    5.2520    1.1270    0.0000 C   0  0  1  0  0  0  0  0  0  0  0  0
    4.8395    1.8414    0.0000 C   0  0  0  0  0  0  0  0  0  0  0  0
    4.0145    1.8414    0.0000 C   0  0  0  0  0  0  0  0  0  0  0  0
    3.6020    1.1270    0.0000 C   0  0  2  0  0  0  0  0  0  0  0  0
    3.1895    1.8414    0.0000 C   0  0  0  0  0  0  0  0  0  0  0  0
    4.0145    0.4125    0.0000 C   0  0  2  0  0  0  0  0  0  0  0  0
    3.6020   -0.3020    0.0000 C   0  0  0  0  0  0  0  0  0  0  0  0
    4.0145   -1.0164    0.0000 O   0  0  0  0  0  0  0  0  0  0  0  0
    2.7770   -0.3020    0.0000 C   0  0  0  0  0  0  0  0  0  0  0  0
    2.3645    0.4125    0.0000 C   0  0  0  0  0  0  0  0  0  0  0  0
    1.5395    0.4125    0.0000 C   0  0  2  0  0  0  0  0  0  0  0  0
    1.1270   -0.3020    0.0000 C   0  0  0  0  0  0  0  0  0  0  0  0
    0.3020   -0.3020    0.0000 C   0  0  2  0  0  0  0  0  0  0  0  0
    0.4452   -1.1144    0.0000 C   0  0  0  0  0  0  0  0  0  0  0  0
   -0.1105    0.4125    0.0000 C   0  0  0  0  0  0  0  0  0  0  0  0
    0.3020    1.1270    0.0000 C   0  0  0  0  0  0  0  0  0  0  0  0
    1.1270    1.1270    0.0000 C   0  0  1  0  0  0  0  0  0  0  0  0
    0.7145    1.8414    0.0000 C   0  0  0  0  0  0  0  0  0  0  0  0
    1.5395    1.8414    0.0000 C   0  0  0  0  0  0  0  0  0  0  0  0
    2.3645    1.8414    0.0000 C   0  0  0  0  0  0  0  0  0  0  0  0
    2.7770    1.1270    0.0000 C   0  0  1  0  0  0  0  0  0  0  0  0
    2.6907    1.9475    0.0000 C   0  0  0  0  0  0  0  0  0  0  0  0
   -0.4733   -0.5841    0.0000 C   0  0  0  0  0  0  0  0  0  0  0  0
   -0.6165   -1.3966    0.0000 O   0  0  0  0  0  0  0  0  0  0  0  0
   -1.1053   -0.0538    0.0000 O   0  0  0  0  0  0  0  0  0  0  0  0
    7.3145    0.4125    0.0000 O   0  0  0  0  0  0  0  0  0  0  0  0
    7.7270    1.1270    0.0000 C   0  0  0  0  0  0  0  0  0  0  0  0
    7.3145    1.8414    0.0000 O   0  0  0  0  0  0  0  0  0  0  0  0
    8.5520    1.1270    0.0000 C   0  0  0  0  0  0  0  0  0  0  0  0
    8.9645    1.8414    0.0000 C   0  0  0  0  0  0  0  0  0  0  0  0
    9.7895    1.8414    0.0000 C   0  0  0  0  0  0  0  0  0  0  0  0
   10.2020    2.5559    0.0000 O   0  0  0  0  0  0  0  0  0  0  0  0
   10.2020    1.1270    0.0000 O   0  0  0  0  0  0  0  0  0  0  0  0
  1  2  1  0  0  0  0
  2  3  1  0  0  0  0
  2  4  1  0  0  0  0
  4  5  1  0  0  0  0
  5  6  1  0  0  0  0
  6  7  1  0  0  0  0
  7  8  1  1  0  0  0
  7  9  1  0  0  0  0
  9  2  1  1  0  0  0
  9 10  1  0  0  0  0
 10 11  1  0  0  0  0
 11 12  1  0  0  0  0
 12 13  1  1  0  0  0
 12 14  1  0  0  0  0
  7 14  1  0  0  0  0
 14 15  1  1  0  0  0
 15 16  2  0  0  0  0
 15 17  1  0  0  0  0
 17 18  2  0  0  0  0
 19 18  1  6  0  0  0
 19 20  1  0  0  0  0
 20 21  1  0  0  0  0
 21 22  1  6  0  0  0
 21 23  1  0  0  0  0
 23 24  1  0  0  0  0
 24 25  1  0  0  0  0
 19 25  1  0  0  0  0
 25 26  1  1  0  0  0
 25 27  1  0  0  0  0
 27 28  1  0  0  0  0
 28 29  1  0  0  0  0
 18 29  1  0  0  0  0
 12 29  1  0  0  0  0
 29 30  1  6  0  0  0
 21 31  1  1  0  0  0
 31 32  2  0  0  0  0
 31 33  1  0  0  0  0
  4 34  1  1  0  0  0
 34 35  1  0  0  0  0
 35 36  2  0  0  0  0
 35 37  1  0  0  0  0
 37 38  1  0  0  0  0
 38 39  1  0  0  0  0
 39 40  2  0  0  0  0
 39 41  1  0  0  0  0
M  END

> <ChembankId>
1276

> <SMILES>
CC1(C)[C@H](CC[C@@]2(C)[C@H]1CC[C@]3(C)[C@@H]2C(=O)C=C4[C@@H]5C[C@](C)(CC[C@]5(C)CC[C@]43C)C(=O)O)OC(=O)CCC(=O)O

> <InChI>
1/C34H50O7/c1-29(2)23-10-13-34(7)27(32(23,5)12-11-24(29)41-26(38)9-8-25(36)37)22(35)18-20-21-19-31(4,28(39)40)15-14-30(21,3)16-17-33(20,34)6/h18,21,23-24,27H,8-17,19H2,1-7H3,(H,36,37)(H,39,40)

$$$$
3187887
  Marvin  11101114192D          

 20 20  0  0  0  0            999 V2000
    0.5230   -0.5230    0.0000 C   0  0  0  0  0  0  0  0  0  0  0  0
    0.9355   -1.2375    0.0000 C   0  0  0  0  0  0  0  0  0  0  0  0
    0.5230   -1.9520    0.0000 C   0  0  0  0  0  0  0  0  0  0  0  0
   -0.3020   -1.9520    0.0000 N   0  0  0  0  0  0  0  0  0  0  0  0
   -0.7145   -1.2375    0.0000 C   0  0  0  0  0  0  0  0  0  0  0  0
   -1.5395   -1.2375    0.0000 O   0  0  0  0  0  0  0  0  0  0  0  0
   -0.3020   -0.5230    0.0000 C   0  0  0  0  0  0  0  0  0  0  0  0
   -0.7145   -2.6664    0.0000 C   0  0  0  0  0  0  0  0  0  0  0  0
   -0.3020   -3.3809    0.0000 C   0  0  0  0  0  0  0  0  0  0  0  0
    0.5230   -3.3809    0.0000 I   0  0  0  0  0  0  0  0  0  0  0  0
   -0.7145   -4.0954    0.0000 C   0  0  0  0  0  0  0  0  0  0  0  0
   -1.5395   -4.0954    0.0000 C   0  0  0  0  0  0  0  0  0  0  0  0
   -1.9520   -4.8099    0.0000 I   0  0  0  0  0  0  0  0  0  0  0  0
   -1.9520   -3.3809    0.0000 C   0  0  0  0  0  0  0  0  0  0  0  0
   -2.7770   -3.3809    0.0000 N   0  0  0  0  0  0  0  0  0  0  0  0
   -1.5395   -2.6664    0.0000 C   0  0  0  0  0  0  0  0  0  0  0  0
   -1.9520   -1.9520    0.0000 I   0  0  0  0  0  0  0  0  0  0  0  0
    1.7605   -1.2375    0.0000 C   0  0  0  0  0  0  0  0  0  0  0  0
    2.1730   -0.5230    0.0000 O   0  0  0  0  0  0  0  0  0  0  0  0
    2.1730   -1.9520    0.0000 O   0  0  0  0  0  0  0  0  0  0  0  0
  1  2  1  0  0  0  0
  2  3  1  0  0  0  0
  3  4  1  0  0  0  0
  4  5  1  0  0  0  0
  5  6  2  0  0  0  0
  5  7  1  0  0  0  0
  4  8  1  0  0  0  0
  8  9  4  0  0  0  0
  9 10  1  0  0  0  0
  9 11  4  0  0  0  0
 11 12  4  0  0  0  0
 12 13  1  0  0  0  0
 12 14  4  0  0  0  0
 14 15  1  0  0  0  0
 14 16  4  0  0  0  0
  8 16  4  0  0  0  0
 16 17  1  0  0  0  0
  2 18  1  0  0  0  0
 18 19  2  0  0  0  0
 18 20  1  0  0  0  0
M  END

> <ChembankId>
3187887

> <SMILES>
CC(CN(C(=O)C)c1c(I)cc(I)c(N)c1I)C(=O)O

> <InChI>
1/C12H13I3N2O3/c1-5(12(19)20)4-17(6(2)18)11-8(14)3-7(13)10(16)9(11)15/h3,5H,4,16H2,1-2H3,(H,19,20)

$$$$
2710
  Marvin  11101114192D          

 23 26  0  0  1  0            999 V2000
   -1.1901   -3.1289    0.0000 C   0  0  0  0  0  0  0  0  0  0  0  0
   -0.9098   -2.3529    0.0000 O   0  0  0  0  0  0  0  0  0  0  0  0
   -0.0976   -2.2077    0.0000 C   0  0  0  0  0  0  0  0  0  0  0  0
    0.1827   -1.4318    0.0000 C   0  0  0  0  0  0  0  0  0  0  0  0
    0.9948   -1.2866    0.0000 C   0  0  0  0  0  0  0  0  0  0  0  0
    1.5266   -1.9173    0.0000 C   0  0  0  0  0  0  0  0  0  0  0  0
    2.3387   -1.7721    0.0000 C   0  0  1  0  0  0  0  0  0  0  0  0
    2.6190   -0.9961    0.0000 C   0  0  0  0  0  0  0  0  0  0  0  0
    3.4311   -0.8509    0.0000 C   0  0  0  0  0  0  0  0  0  0  0  0
    3.9629   -1.4816    0.0000 C   0  0  1  0  0  0  0  0  0  0  0  0
    4.3228   -0.7393    0.0000 C   0  0  0  0  0  0  0  0  0  0  0  0
    3.6826   -2.2576    0.0000 C   0  0  1  0  0  0  0  0  0  0  0  0
    4.3340   -2.7639    0.0000 C   0  0  0  0  0  0  0  0  0  0  0  0
    5.0168   -2.3009    0.0000 C   0  0  0  0  0  0  0  0  0  0  0  0
    4.7875   -1.5084    0.0000 C   0  0  2  0  0  0  0  0  0  0  0  0
    5.5484   -1.1896    0.0000 O   0  0  0  0  0  0  0  0  0  0  0  0
    4.9089   -0.6924    0.0000 C   0  0  0  0  0  0  0  0  0  0  0  0
    5.0303    0.1236    0.0000 C   0  0  0  0  0  0  0  0  0  0  0  0
    2.8705   -2.4028    0.0000 C   0  0  2  0  0  0  0  0  0  0  0  0
    2.5902   -3.1787    0.0000 C   0  0  0  0  0  0  0  0  0  0  0  0
    1.7781   -3.3239    0.0000 C   0  0  0  0  0  0  0  0  0  0  0  0
    1.2463   -2.6932    0.0000 C   0  0  0  0  0  0  0  0  0  0  0  0
    0.4342   -2.8384    0.0000 C   0  0  0  0  0  0  0  0  0  0  0  0
  1  2  1  0  0  0  0
  2  3  1  0  0  0  0
  3  4  4  0  0  0  0
  4  5  4  0  0  0  0
  5  6  4  0  0  0  0
  6  7  1  0  0  0  0
  7  8  1  1  0  0  0
  8  9  1  0  0  0  0
  9 10  1  0  0  0  0
 10 11  1  1  0  0  0
 10 12  1  0  0  0  0
 12 13  1  1  0  0  0
 13 14  1  0  0  0  0
 14 15  1  0  0  0  0
 10 15  1  0  0  0  0
 15 16  1  1  0  0  0
 15 17  1  6  0  0  0
 17 18  3  0  0  0  0
 12 19  1  0  0  0  0
  7 19  1  0  0  0  0
 19 20  1  6  0  0  0
 20 21  1  0  0  0  0
 21 22  1  0  0  0  0
  6 22  4  0  0  0  0
 22 23  4  0  0  0  0
  3 23  4  0  0  0  0
M  END

> <ChembankId>
2710

> <SMILES>
COc1ccc2[C@H]3CC[C@@]4(C)[C@@H](CC[C@@]4(O)C#C)[C@@H]3CCc2c1

> <InChI>
1/C21H26O2/c1-4-21(22)12-10-19-18-7-5-14-13-15(23-3)6-8-16(14)17(18)9-11-20(19,21)2/h1,6,8,13,17-19,22H,5,7,9-12H2,2-3H3

$$$$
3452
  Marvin  11101114192D          

 21 22  0  0  1  0            999 V2000
    4.2868    0.8250    0.0000 C   0  0  0  0  0  0  0  0  0  0  0  0
    5.0013    0.4125    0.0000 C   0  0  0  0  0  0  0  0  0  0  0  0
    4.5888   -0.3020    0.0000 C   0  0  0  0  0  0  0  0  0  0  0  0
    5.4138    1.1270    0.0000 C   0  0  0  0  0  0  0  0  0  0  0  0
    5.7158    0.0000    0.0000 N   0  0  0  0  0  0  0  0  0  0  0  0
    6.4302    0.4125    0.0000 C   0  0  0  0  0  0  0  0  0  0  0  0
    7.1447    0.0000    0.0000 C   0  0  2  0  0  0  0  0  0  0  0  0
    7.1447   -0.8250    0.0000 O   0  0  0  0  0  0  0  0  0  0  0  0
    7.8592    0.4125    0.0000 C   0  0  0  0  0  0  0  0  0  0  0  0
    8.5737    0.0000    0.0000 O   0  0  0  0  0  0  0  0  0  0  0  0
    9.2881    0.4125    0.0000 C   0  0  0  0  0  0  0  0  0  0  0  0
    9.2881    1.2375    0.0000 C   0  0  0  0  0  0  0  0  0  0  0  0
   10.0026    1.6500    0.0000 C   0  0  0  0  0  0  0  0  0  0  0  0
   10.7171    1.2375    0.0000 C   0  0  0  0  0  0  0  0  0  0  0  0
   10.7171    0.4125    0.0000 C   0  0  0  0  0  0  0  0  0  0  0  0
   11.4315    0.0000    0.0000 C   0  0  0  0  0  0  0  0  0  0  0  0
   12.1460    0.4125    0.0000 O   0  0  0  0  0  0  0  0  0  0  0  0
   11.4315   -0.8250    0.0000 C   0  0  0  0  0  0  0  0  0  0  0  0
   10.7171   -1.2375    0.0000 C   0  0  0  0  0  0  0  0  0  0  0  0
   10.0026   -0.8250    0.0000 C   0  0  0  0  0  0  0  0  0  0  0  0
   10.0026    0.0000    0.0000 C   0  0  0  0  0  0  0  0  0  0  0  0
  1  2  1  0  0  0  0
  2  3  1  0  0  0  0
  2  4  1  0  0  0  0
  2  5  1  0  0  0  0
  5  6  1  0  0  0  0
  6  7  1  0  0  0  0
  7  8  1  1  0  0  0
  7  9  1  0  0  0  0
  9 10  1  0  0  0  0
 10 11  1  0  0  0  0
 11 12  4  0  0  0  0
 12 13  4  0  0  0  0
 13 14  4  0  0  0  0
 14 15  4  0  0  0  0
 15 16  1  0  0  0  0
 16 17  2  0  0  0  0
 16 18  1  0  0  0  0
 18 19  1  0  0  0  0
 19 20  1  0  0  0  0
 20 21  1  0  0  0  0
 11 21  4  0  0  0  0
 15 21  4  0  0  0  0
M  END

> <ChembankId>
3452

> <SMILES>
CC(C)(C)NC[C@H](O)COc1cccc2C(=O)CCCc12

> <InChI>
1/C17H25NO3/c1-17(2,3)18-10-12(19)11-21-16-9-5-6-13-14(16)7-4-8-15(13)20/h5-6,9,12,18-19H,4,7-8,10-11H2,1-3H3

$$$$
3069696
  Marvin  11101114192D          

 38 42  0  0  1  0            999 V2000
    5.7158    2.4750    0.0000 C   0  0  0  0  0  0  0  0  0  0  0  0
    5.0013    2.0625    0.0000 N   0  0  0  0  0  0  0  0  0  0  0  0
    4.2868    2.4750    0.0000 C   0  0  0  0  0  0  0  0  0  0  0  0
    5.0013    1.2375    0.0000 C   0  0  1  0  0  0  0  0  0  0  0  0
    4.2868    0.8250    0.0000 C   0  0  0  0  0  0  0  0  0  0  0  0
    3.5724    1.2375    0.0000 C   0  0  0  0  0  0  0  0  0  0  0  0
    2.8579    0.8250    0.0000 C   0  0  0  0  0  0  0  0  0  0  0  0
    2.8579    0.0000    0.0000 C   0  0  0  0  0  0  0  0  0  0  0  0
    3.5724   -0.4125    0.0000 C   0  0  0  0  0  0  0  0  0  0  0  0
    3.5724   -1.2375    0.0000 O   0  0  0  0  0  0  0  0  0  0  0  0
    4.2868    0.0000    0.0000 C   0  0  1  0  0  0  0  0  0  0  0  0
    4.2868   -0.8250    0.0000 O   0  0  0  0  0  0  0  0  0  0  0  0
    5.0013   -0.4125    0.0000 C   0  0  0  0  0  0  0  0  0  0  0  0
    5.0013   -1.2375    0.0000 O   0  0  0  0  0  0  0  0  0  0  0  0
    5.7158   -0.0000    0.0000 C   0  0  0  0  0  0  0  0  0  0  0  0
    5.7158    0.8250    0.0000 C   0  0  0  0  0  0  0  0  0  0  0  0
    6.4302    1.2375    0.0000 O   0  0  0  0  0  0  0  0  0  0  0  0
    6.4302   -0.4125    0.0000 C   0  0  0  0  0  0  0  0  0  0  0  0
    6.4302   -1.2375    0.0000 O   0  0  0  0  0  0  0  0  0  0  0  0
    7.1447   -0.0000    0.0000 N   0  0  0  0  0  0  0  0  0  0  0  0
    7.8592   -0.4125    0.0000 C   0  0  0  0  0  0  0  0  0  0  0  0
    8.5737   -0.0000    0.0000 N   0  0  0  0  0  0  0  0  0  0  0  0
    8.6599    0.8205    0.0000 C   0  0  0  0  0  0  0  0  0  0  0  0
    9.4669    0.9920    0.0000 C   0  0  0  0  0  0  0  0  0  0  0  0
    9.8794    0.2775    0.0000 C   0  0  0  0  0  0  0  0  0  0  0  0
    9.3273   -0.3356    0.0000 C   0  0  0  0  0  0  0  0  0  0  0  0
    2.1434   -0.4125    0.0000 C   0  0  0  0  0  0  0  0  0  0  0  0
    2.1434   -1.2375    0.0000 O   0  0  0  0  0  0  0  0  0  0  0  0
    1.4289   -0.0000    0.0000 C   0  0  0  0  0  0  0  0  0  0  0  0
    0.7145   -0.4125    0.0000 C   0  0  0  0  0  0  0  0  0  0  0  0
    0.7145   -1.2375    0.0000 O   0  0  0  0  0  0  0  0  0  0  0  0
   -0.0000    0.0000    0.0000 C   0  0  0  0  0  0  0  0  0  0  0  0
    0.0000    0.8250    0.0000 C   0  0  0  0  0  0  0  0  0  0  0  0
    0.7145    1.2375    0.0000 C   0  0  0  0  0  0  0  0  0  0  0  0
    1.4289    0.8250    0.0000 C   0  0  0  0  0  0  0  0  0  0  0  0
    2.1434    1.2375    0.0000 C   0  0  2  0  0  0  0  0  0  0  0  0
    1.7561    1.9659    0.0000 C   0  0  0  0  0  0  0  0  0  0  0  0
    2.5307    1.9659    0.0000 O   0  0  0  0  0  0  0  0  0  0  0  0
  1  2  1  0  0  0  0
  2  3  1  0  0  0  0
  4  2  1  6  0  0  0
  4  5  1  0  0  0  0
  5  6  1  0  0  0  0
  6  7  1  0  0  0  0
  7  8  1  0  0  0  0
  8  9  2  0  0  0  0
  9 10  1  0  0  0  0
  9 11  1  0  0  0  0
  5 11  1  0  0  0  0
 11 12  1  6  0  0  0
 11 13  1  0  0  0  0
 13 14  2  0  0  0  0
 13 15  1  0  0  0  0
 15 16  2  0  0  0  0
  4 16  1  0  0  0  0
 16 17  1  0  0  0  0
 15 18  1  0  0  0  0
 18 19  2  0  0  0  0
 18 20  1  0  0  0  0
 20 21  1  0  0  0  0
 21 22  1  0  0  0  0
 22 23  1  0  0  0  0
 23 24  1  0  0  0  0
 24 25  1  0  0  0  0
 25 26  1  0  0  0  0
 22 26  1  0  0  0  0
  8 27  1  0  0  0  0
 27 28  2  0  0  0  0
 27 29  1  0  0  0  0
 29 30  4  0  0  0  0
 30 31  1  0  0  0  0
 30 32  4  0  0  0  0
 32 33  4  0  0  0  0
 33 34  4  0  0  0  0
 34 35  4  0  0  0  0
 29 35  4  0  0  0  0
 35 36  1  0  0  0  0
  7 36  1  0  0  0  0
 36 37  1  6  0  0  0
 36 38  1  1  0  0  0
M  END

> <ChembankId>
3069696

> <SMILES>
CN(C)[C@H]1C2CC3C(=C(O)[C@]2(O)C(=O)C(=C1O)C(=O)NCN4CCCC4)C(=O)c5c(O)cccc5[C@@]3(C)O

> <InChI>
1/C27H33N3O8/c1-26(37)13-7-6-8-16(31)17(13)21(32)18-14(26)11-15-20(29(2)3)22(33)19(24(35)27(15,38)23(18)34)25(36)28-12-30-9-4-5-10-30/h6-8,14-15,20,31,33-34,37-38H,4-5,9-12H2,1-3H3,(H,28,36)

$$$$
1405
  Marvin  11101114192D          

 20 23  0  0  1  0            999 V2000
    3.5330   -3.2587    0.0000 C   0  0  0  0  0  0  0  0  0  0  0  0
    3.8928   -2.5163    0.0000 C   0  0  2  0  0  0  0  0  0  0  0  0
    4.4247   -3.1470    0.0000 C   0  0  0  0  0  0  0  0  0  0  0  0
    5.2368   -3.0018    0.0000 C   0  0  0  0  0  0  0  0  0  0  0  0
    5.5171   -2.2259    0.0000 C   0  0  1  0  0  0  0  0  0  0  0  0
    4.9853   -1.5952    0.0000 C   0  0  0  0  0  0  0  0  0  0  0  0
    5.2655   -0.8192    0.0000 C   0  0  0  0  0  0  0  0  0  0  0  0
    6.0777   -0.6740    0.0000 C   0  0  0  0  0  0  0  0  0  0  0  0
    6.6095   -1.3047    0.0000 C   0  0  0  0  0  0  0  0  0  0  0  0
    7.4216   -1.1595    0.0000 C   0  0  0  0  0  0  0  0  0  0  0  0
    7.9534   -1.7902    0.0000 C   0  0  0  0  0  0  0  0  0  0  0  0
    8.7655   -1.6450    0.0000 O   0  0  0  0  0  0  0  0  0  0  0  0
    7.6731   -2.5662    0.0000 C   0  0  0  0  0  0  0  0  0  0  0  0
    6.8610   -2.7114    0.0000 C   0  0  0  0  0  0  0  0  0  0  0  0
    6.3292   -2.0807    0.0000 C   0  0  0  0  0  0  0  0  0  0  0  0
    4.1731   -1.7404    0.0000 C   0  0  2  0  0  0  0  0  0  0  0  0
    3.5218   -1.2340    0.0000 C   0  0  0  0  0  0  0  0  0  0  0  0
    2.8390   -1.6970    0.0000 C   0  0  0  0  0  0  0  0  0  0  0  0
    3.0683   -2.4895    0.0000 C   0  0  0  0  0  0  0  0  0  0  0  0
    2.5619   -3.1408    0.0000 O   0  0  0  0  0  0  0  0  0  0  0  0
  2  1  1  1  0  0  0
  2  3  1  0  0  0  0
  3  4  1  0  0  0  0
  4  5  1  0  0  0  0
  5  6  1  1  0  0  0
  6  7  2  0  0  0  0
  7  8  1  0  0  0  0
  8  9  1  0  0  0  0
  9 10  4  0  0  0  0
 10 11  4  0  0  0  0
 11 12  1  0  0  0  0
 11 13  4  0  0  0  0
 13 14  4  0  0  0  0
 14 15  4  0  0  0  0
  5 15  1  0  0  0  0
  9 15  4  0  0  0  0
 16  6  1  1  0  0  0
  2 16  1  0  0  0  0
 16 17  1  0  0  0  0
 17 18  1  0  0  0  0
 18 19  1  0  0  0  0
  2 19  1  0  0  0  0
 19 20  2  0  0  0  0
M  END

> <ChembankId>
1405

> <SMILES>
C[C@@]12CC[C@H]3C(=CCc4cc(O)ccc34)[C@@H]2CCC1=O

> <InChI>
1/C18H20O2/c1-18-9-8-14-13-5-3-12(19)10-11(13)2-4-15(14)16(18)6-7-17(18)20/h3-5,10,14,16,19H,2,6-9H2,1H3

$$$$
1000270
  Marvin  11101114192D          

 36 39  0  0  1  0            999 V2000
    5.6144   -4.2645    0.0000 C   0  0  0  0  0  0  0  0  0  0  0  0
    6.3289   -4.6770    0.0000 C   0  0  0  0  0  0  0  0  0  0  0  0
    7.0433   -4.2645    0.0000 C   0  0  0  0  0  0  0  0  0  0  0  0
    7.0433   -3.4395    0.0000 O   0  0  0  0  0  0  0  0  0  0  0  0
    7.7578   -4.6770    0.0000 O   0  0  0  0  0  0  0  0  0  0  0  0
    8.4723   -4.2645    0.0000 C   0  0  0  0  0  0  0  0  0  0  0  0
    9.1867   -4.6770    0.0000 C   0  0  0  0  0  0  0  0  0  0  0  0
    9.1867   -5.5020    0.0000 O   0  0  0  0  0  0  0  0  0  0  0  0
    9.9012   -4.2645    0.0000 C   0  0  1  0  0  0  0  0  0  0  0  0
   10.2368   -5.0182    0.0000 O   0  0  0  0  0  0  0  0  0  0  0  0
    9.7519   -5.6856    0.0000 C   0  0  0  0  0  0  0  0  0  0  0  0
    8.9449   -5.8572    0.0000 O   0  0  0  0  0  0  0  0  0  0  0  0
   10.0874   -6.4393    0.0000 C   0  0  0  0  0  0  0  0  0  0  0  0
    9.6025   -7.1068    0.0000 C   0  0  0  0  0  0  0  0  0  0  0  0
    9.4163   -3.5971    0.0000 C   0  0  1  0  0  0  0  0  0  0  0  0
    8.5913   -3.5971    0.0000 C   0  0  0  0  0  0  0  0  0  0  0  0
    9.9012   -2.9297    0.0000 C   0  0  0  0  0  0  0  0  0  0  0  0
   10.6858   -3.1846    0.0000 C   0  0  1  0  0  0  0  0  0  0  0  0
   11.4003   -2.7721    0.0000 C   0  0  2  0  0  0  0  0  0  0  0  0
   11.4003   -1.9471    0.0000 C   0  0  0  0  0  0  0  0  0  0  0  0
   12.1148   -1.5346    0.0000 C   0  0  0  0  0  0  0  0  0  0  0  0
   12.8293   -1.9471    0.0000 C   0  0  0  0  0  0  0  0  0  0  0  0
   13.5437   -1.5346    0.0000 C   0  0  0  0  0  0  0  0  0  0  0  0
   14.2582   -1.9471    0.0000 C   0  0  0  0  0  0  0  0  0  0  0  0
   14.9727   -1.5346    0.0000 O   0  0  0  0  0  0  0  0  0  0  0  0
   14.2582   -2.7721    0.0000 C   0  0  0  0  0  0  0  0  0  0  0  0
   13.5437   -3.1846    0.0000 C   0  0  0  0  0  0  0  0  0  0  0  0
   12.8293   -2.7721    0.0000 C   0  0  1  0  0  0  0  0  0  0  0  0
   12.8293   -3.5971    0.0000 C   0  0  0  0  0  0  0  0  0  0  0  0
   12.1148   -3.1846    0.0000 C   0  0  2  0  0  0  0  0  0  0  0  0
   12.4503   -3.9383    0.0000 Cl  0  0  0  0  0  0  0  0  0  0  0  0
   12.1148   -4.0096    0.0000 C   0  0  1  0  0  0  0  0  0  0  0  0
   12.8293   -4.4221    0.0000 O   0  0  0  0  0  0  0  0  0  0  0  0
   11.4003   -4.4221    0.0000 C   0  0  0  0  0  0  0  0  0  0  0  0
   10.6858   -4.0096    0.0000 C   0  0  2  0  0  0  0  0  0  0  0  0
   10.5996   -4.8301    0.0000 C   0  0  0  0  0  0  0  0  0  0  0  0
  1  2  1  0  0  0  0
  2  3  1  0  0  0  0
  3  4  2  0  0  0  0
  3  5  1  0  0  0  0
  5  6  1  0  0  0  0
  6  7  1  0  0  0  0
  7  8  2  0  0  0  0
  9  7  1  1  0  0  0
  9 10  1  6  0  0  0
 10 11  1  0  0  0  0
 11 12  2  0  0  0  0
 11 13  1  0  0  0  0
 13 14  1  0  0  0  0
  9 15  1  0  0  0  0
 15 16  1  1  0  0  0
 15 17  1  0  0  0  0
 18 17  1  1  0  0  0
 18 19  1  0  0  0  0
 19 20  1  6  0  0  0
 20 21  1  0  0  0  0
 21 22  1  0  0  0  0
 22 23  2  0  0  0  0
 23 24  1  0  0  0  0
 24 25  2  0  0  0  0
 24 26  1  0  0  0  0
 26 27  2  0  0  0  0
 27 28  1  0  0  0  0
 22 28  1  0  0  0  0
 28 29  1  1  0  0  0
 28 30  1  0  0  0  0
 19 30  1  0  0  0  0
 30 31  1  6  0  0  0
 30 32  1  0  0  0  0
 32 33  1  1  0  0  0
 32 34  1  0  0  0  0
 34 35  1  0  0  0  0
 18 35  1  0  0  0  0
  9 35  1  0  0  0  0
 35 36  1  1  0  0  0
M  END

> <ChembankId>
1000270

> <SMILES>
CCC(=O)OCC(=O)[C@@]1(OC(=O)CC)[C@@H](C)C[C@H]2[C@@H]3CCC4=CC(=O)C=C[C@]4(C)[C@@]3(Cl)[C@@H](O)C[C@@]21C

> <InChI>
1/C28H37ClO7/c1-6-23(33)35-15-22(32)28(36-24(34)7-2)16(3)12-20-19-9-8-17-13-18(30)10-11-25(17,4)27(19,29)21(31)14-26(20,28)5/h10-11,13,16,19-21,31H,6-9,12,14-15H2,1-5H3

$$$$
1736
  Marvin  11101114192D          

 30 32  0  0  1  0            999 V2000
    4.8986   -0.6046    0.0000 C   0  0  0  0  0  0  0  0  0  0  0  0
    4.2855   -1.1566    0.0000 C   0  0  0  0  0  0  0  0  0  0  0  0
    4.4570   -1.9636    0.0000 C   0  0  0  0  0  0  0  0  0  0  0  0
    3.5009   -0.9017    0.0000 N   0  0  0  0  0  0  0  0  0  0  0  0
    2.8334   -1.3866    0.0000 C   0  0  0  0  0  0  0  0  0  0  0  0
    2.8334   -2.2116    0.0000 C   0  0  0  0  0  0  0  0  0  0  0  0
    2.1190   -2.6241    0.0000 C   0  0  0  0  0  0  0  0  0  0  0  0
    2.1190   -3.4491    0.0000 C   0  0  1  0  0  0  0  0  0  0  0  0
    1.4045   -3.8616    0.0000 O   0  0  0  0  0  0  0  0  0  0  0  0
    2.8334   -3.8616    0.0000 C   0  0  0  0  0  0  0  0  0  0  0  0
    3.5479   -3.4491    0.0000 C   0  0  1  0  0  0  0  0  0  0  0  0
    3.5479   -2.6241    0.0000 O   0  0  0  0  0  0  0  0  0  0  0  0
    4.2624   -3.8616    0.0000 C   0  0  0  0  0  0  0  0  0  0  0  0
    4.9769   -3.4491    0.0000 C   0  0  0  0  0  0  0  0  0  0  0  0
    5.6913   -3.8616    0.0000 O   0  0  0  0  0  0  0  0  0  0  0  0
    4.9769   -2.6241    0.0000 O   0  0  0  0  0  0  0  0  0  0  0  0
    2.1660   -0.9017    0.0000 C   0  0  0  0  0  0  0  0  0  0  0  0
    1.3814   -1.1566    0.0000 C   0  0  0  0  0  0  0  0  0  0  0  0
    1.2099   -1.9636    0.0000 C   0  0  0  0  0  0  0  0  0  0  0  0
    0.4252   -2.2185    0.0000 C   0  0  0  0  0  0  0  0  0  0  0  0
   -0.1879   -1.6665    0.0000 C   0  0  0  0  0  0  0  0  0  0  0  0
   -0.9725   -1.9215    0.0000 F   0  0  0  0  0  0  0  0  0  0  0  0
   -0.0163   -0.8595    0.0000 C   0  0  0  0  0  0  0  0  0  0  0  0
    0.7683   -0.6046    0.0000 C   0  0  0  0  0  0  0  0  0  0  0  0
    2.4209   -0.1171    0.0000 C   0  0  0  0  0  0  0  0  0  0  0  0
    2.0084    0.5974    0.0000 C   0  0  0  0  0  0  0  0  0  0  0  0
    2.4209    1.3119    0.0000 C   0  0  0  0  0  0  0  0  0  0  0  0
    3.2459    1.3119    0.0000 C   0  0  0  0  0  0  0  0  0  0  0  0
    3.6584    0.5974    0.0000 C   0  0  0  0  0  0  0  0  0  0  0  0
    3.2459   -0.1171    0.0000 C   0  0  0  0  0  0  0  0  0  0  0  0
  1  2  1  0  0  0  0
  2  3  1  0  0  0  0
  2  4  1  0  0  0  0
  4  5  4  0  0  0  0
  5  6  1  0  0  0  0
  6  7  2  0  0  0  0
  7  8  1  0  0  0  0
  8  9  1  6  0  0  0
  8 10  1  0  0  0  0
 10 11  1  0  0  0  0
 11 12  1  1  0  0  0
 11 13  1  0  0  0  0
 13 14  1  0  0  0  0
 14 15  2  0  0  0  0
 14 16  1  0  0  0  0
  5 17  4  0  0  0  0
 17 18  1  0  0  0  0
 18 19  4  0  0  0  0
 19 20  4  0  0  0  0
 20 21  4  0  0  0  0
 21 22  1  0  0  0  0
 21 23  4  0  0  0  0
 23 24  4  0  0  0  0
 18 24  4  0  0  0  0
 17 25  4  0  0  0  0
 25 26  4  0  0  0  0
 26 27  4  0  0  0  0
 27 28  4  0  0  0  0
 28 29  4  0  0  0  0
 29 30  4  0  0  0  0
  4 30  4  0  0  0  0
 25 30  4  0  0  0  0
M  END

> <ChembankId>
1736

> <SMILES>
CC(C)n1c(/C=C/[C@@H](O)C[C@@H](O)CC(=O)O)c(c2ccc(F)cc2)c3ccccc13

> <InChI>
1/C24H26FNO4/c1-15(2)26-21-6-4-3-5-20(21)24(16-7-9-17(25)10-8-16)22(26)12-11-18(27)13-19(28)14-23(29)30/h3-12,15,18-19,27-28H,13-14H2,1-2H3,(H,29,30)/b12-11+/t18-,19-/m1/s1

$$$$
2764
  Marvin  11101114192D          

 11 10  0  0  0  0            999 V2000
    1.6500   -0.8250    0.0000 C   0  0  0  0  0  0  0  0  0  0  0  0
    0.8250   -0.8250    0.0000 C   0  0  0  0  0  0  0  0  0  0  0  0
    0.0000   -0.8250    0.0000 O   0  0  0  0  0  0  0  0  0  0  0  0
    0.8250   -1.6500    0.0000 P   0  0  0  0  0  0  0  0  0  0  0  0
    0.8250   -2.4750    0.0000 O   0  0  0  0  0  0  0  0  0  0  0  0
    1.6500   -1.6500    0.0000 O   0  0  0  0  0  0  0  0  0  0  0  0
    0.0000   -1.6500    0.0000 O   0  0  0  0  0  0  0  0  0  0  0  0
    0.8250    0.0000    0.0000 P   0  0  0  0  0  0  0  0  0  0  0  0
    0.8250    0.8250    0.0000 O   0  0  0  0  0  0  0  0  0  0  0  0
    1.6500   -0.0000    0.0000 O   0  0  0  0  0  0  0  0  0  0  0  0
    0.0000    0.0000    0.0000 O   0  0  0  0  0  0  0  0  0  0  0  0
  1  2  1  0  0  0  0
  2  3  1  0  0  0  0
  2  4  1  0  0  0  0
  4  5  2  0  0  0  0
  4  6  1  0  0  0  0
  4  7  1  0  0  0  0
  2  8  1  0  0  0  0
  8  9  2  0  0  0  0
  8 10  1  0  0  0  0
  8 11  1  0  0  0  0
M  END

> <ChembankId>
2764

> <SMILES>
CC(O)(P(=O)(O)O)P(=O)(O)O

> <InChI>
1/C2H8O7P2/c1-2(3,10(4,5)6)11(7,8)9/h3H,1H3,(H2,4,5,6)(H2,7,8,9)

$$$$
2819
  Marvin  11101114192D          

 11 11  0  0  0  0            999 V2000
    2.0572    1.7262    0.0000 C   0  0  0  0  0  0  0  0  0  0  0  0
    1.2448    1.8695    0.0000 C   0  0  0  0  0  0  0  0  0  0  0  0
    0.7145    1.2375    0.0000 C   0  0  0  0  0  0  0  0  0  0  0  0
    0.1842    1.8695    0.0000 C   0  0  0  0  0  0  0  0  0  0  0  0
    1.4289    0.8250    0.0000 C   0  0  0  0  0  0  0  0  0  0  0  0
    1.4289    0.0000    0.0000 C   0  0  0  0  0  0  0  0  0  0  0  0
    2.1434   -0.4125    0.0000 O   0  0  0  0  0  0  0  0  0  0  0  0
    0.7145   -0.4125    0.0000 N   0  0  0  0  0  0  0  0  0  0  0  0
    0.0000   -0.0000    0.0000 C   0  0  0  0  0  0  0  0  0  0  0  0
   -0.7145   -0.4125    0.0000 O   0  0  0  0  0  0  0  0  0  0  0  0
   -0.0000    0.8250    0.0000 C   0  0  0  0  0  0  0  0  0  0  0  0
  1  2  1  0  0  0  0
  2  3  1  0  0  0  0
  3  4  1  0  0  0  0
  3  5  1  0  0  0  0
  5  6  1  0  0  0  0
  6  7  2  0  0  0  0
  6  8  1  0  0  0  0
  8  9  1  0  0  0  0
  9 10  2  0  0  0  0
  9 11  1  0  0  0  0
  3 11  1  0  0  0  0
M  END

> <ChembankId>
2819

> <SMILES>
CCC1(C)CC(=O)NC(=O)C1

> <InChI>
1/C8H13NO2/c1-3-8(2)4-6(10)9-7(11)5-8/h3-5H2,1-2H3,(H,9,10,11)

$$$$
4370
  Marvin  11101114192D          

 13 12  0  0  0  0            999 V2000
    2.9980    2.5559    0.0000 C   0  0  0  0  0  0  0  0  0  0  0  0
    3.7125    2.1434    0.0000 N   0  0  0  0  0  0  0  0  0  0  0  0
    4.4270    2.5559    0.0000 C   0  0  0  0  0  0  0  0  0  0  0  0
    5.1414    2.1434    0.0000 C   0  0  0  0  0  0  0  0  0  0  0  0
    5.1414    1.3184    0.0000 O   0  0  0  0  0  0  0  0  0  0  0  0
    5.8559    2.5559    0.0000 C   0  0  0  0  0  0  0  0  0  0  0  0
    5.8559    3.3809    0.0000 O   0  0  0  0  0  0  0  0  0  0  0  0
    6.5704    2.1434    0.0000 C   0  0  0  0  0  0  0  0  0  0  0  0
    6.5704    1.3184    0.0000 O   0  0  0  0  0  0  0  0  0  0  0  0
    7.2849    2.5559    0.0000 C   0  0  0  0  0  0  0  0  0  0  0  0
    7.2849    3.3809    0.0000 O   0  0  0  0  0  0  0  0  0  0  0  0
    7.9993    2.1434    0.0000 C   0  0  0  0  0  0  0  0  0  0  0  0
    8.7138    2.5559    0.0000 O   0  0  0  0  0  0  0  0  0  0  0  0
  1  2  1  0  0  0  0
  2  3  1  0  0  0  0
  3  4  1  0  0  0  0
  4  5  1  0  0  0  0
  4  6  1  0  0  0  0
  6  7  1  0  0  0  0
  6  8  1  0  0  0  0
  8  9  1  0  0  0  0
  8 10  1  0  0  0  0
 10 11  1  0  0  0  0
 10 12  1  0  0  0  0
 12 13  1  0  0  0  0
M  END

> <ChembankId>
4370

> <SMILES>
CNCC(O)C(O)C(O)C(O)CO

> <InChI>
1/C7H17NO5/c1-8-2-4(10)6(12)7(13)5(11)3-9/h4-13H,2-3H2,1H3

$$$$
3487233
  Marvin  11101114192D          

 17 18  0  0  0  0            999 V2000
   -0.1781   -3.1062    0.0000 C   0  0  0  0  0  0  0  0  0  0  0  0
    0.0768   -2.3215    0.0000 C   0  0  0  0  0  0  0  0  0  0  0  0
   -0.4752   -1.7084    0.0000 O   0  0  0  0  0  0  0  0  0  0  0  0
    0.8838   -2.1500    0.0000 C   0  0  0  0  0  0  0  0  0  0  0  0
    1.1387   -1.3654    0.0000 N   0  0  0  0  0  0  0  0  0  0  0  0
    0.6538   -0.6979    0.0000 C   0  0  0  0  0  0  0  0  0  0  0  0
    1.1387   -0.0305    0.0000 N   0  0  0  0  0  0  0  0  0  0  0  0
    1.9233   -0.2854    0.0000 C   0  0  0  0  0  0  0  0  0  0  0  0
    2.6378    0.1271    0.0000 N   0  0  0  0  0  0  0  0  0  0  0  0
    2.6378    0.9521    0.0000 C   0  0  0  0  0  0  0  0  0  0  0  0
    3.3523   -0.2854    0.0000 C   0  0  0  0  0  0  0  0  0  0  0  0
    4.0668    0.1271    0.0000 O   0  0  0  0  0  0  0  0  0  0  0  0
    3.3523   -1.1104    0.0000 N   0  0  0  0  0  0  0  0  0  0  0  0
    4.0668   -1.5229    0.0000 C   0  0  0  0  0  0  0  0  0  0  0  0
    2.6378   -1.5229    0.0000 C   0  0  0  0  0  0  0  0  0  0  0  0
    2.6378   -2.3479    0.0000 O   0  0  0  0  0  0  0  0  0  0  0  0
    1.9233   -1.1104    0.0000 C   0  0  0  0  0  0  0  0  0  0  0  0
  1  2  1  0  0  0  0
  2  3  1  0  0  0  0
  2  4  1  0  0  0  0
  4  5  1  0  0  0  0
  5  6  4  0  0  0  0
  6  7  4  0  0  0  0
  7  8  4  0  0  0  0
  8  9  4  0  0  0  0
  9 10  1  0  0  0  0
  9 11  4  0  0  0  0
 11 12  2  0  0  0  0
 11 13  4  0  0  0  0
 13 14  1  0  0  0  0
 13 15  4  0  0  0  0
 15 16  2  0  0  0  0
 15 17  4  0  0  0  0
  5 17  4  0  0  0  0
  8 17  4  0  0  0  0
M  END

> <ChembankId>
3487233

> <SMILES>
CC(O)Cn1cnc2n(C)c(=O)n(C)c(=O)c12

> <InChI>
1/C10H14N4O3/c1-6(15)4-14-5-11-8-7(14)9(16)13(3)10(17)12(8)2/h5-6,15H,4H2,1-3H3

$$$$
2776
  Marvin  11101114192D          

 16 17  0  0  0  0            999 V2000
    0.0000    0.8250    0.0000 O   0  0  0  0  0  0  0  0  0  0  0  0
    0.0000    0.0000    0.0000 C   0  0  0  0  0  0  0  0  0  0  0  0
   -0.7145   -0.4125    0.0000 O   0  0  0  0  0  0  0  0  0  0  0  0
    0.7145   -0.4125    0.0000 C   0  0  0  0  0  0  0  0  0  0  0  0
    0.7145   -1.2375    0.0000 C   0  0  0  0  0  0  0  0  0  0  0  0
    1.4289   -1.6500    0.0000 C   0  0  0  0  0  0  0  0  0  0  0  0
    1.4289   -2.4750    0.0000 C   0  0  0  0  0  0  0  0  0  0  0  0
    0.7145   -2.8875    0.0000 C   0  0  0  0  0  0  0  0  0  0  0  0
    0.0000   -2.4750    0.0000 C   0  0  0  0  0  0  0  0  0  0  0  0
    0.0000   -1.6500    0.0000 C   0  0  0  0  0  0  0  0  0  0  0  0
    0.7145   -3.7125    0.0000 C   0  0  0  0  0  0  0  0  0  0  0  0
    1.4289   -4.1250    0.0000 C   0  0  0  0  0  0  0  0  0  0  0  0
    1.4289   -4.9500    0.0000 C   0  0  0  0  0  0  0  0  0  0  0  0
    0.7145   -5.3625    0.0000 C   0  0  0  0  0  0  0  0  0  0  0  0
   -0.0000   -4.9500    0.0000 C   0  0  0  0  0  0  0  0  0  0  0  0
    0.0000   -4.1250    0.0000 C   0  0  0  0  0  0  0  0  0  0  0  0
  1  2  1  0  0  0  0
  2  3  2  0  0  0  0
  2  4  1  0  0  0  0
  4  5  1  0  0  0  0
  5  6  4  0  0  0  0
  6  7  4  0  0  0  0
  7  8  4  0  0  0  0
  8  9  4  0  0  0  0
  9 10  4  0  0  0  0
  5 10  4  0  0  0  0
  8 11  1  0  0  0  0
 11 12  4  0  0  0  0
 12 13  4  0  0  0  0
 13 14  4  0  0  0  0
 14 15  4  0  0  0  0
 15 16  4  0  0  0  0
 11 16  4  0  0  0  0
M  END

> <ChembankId>
2776

> <SMILES>
OC(=O)Cc1ccc(cc1)c2ccccc2

> <InChI>
1/C14H12O2/c15-14(16)10-11-6-8-13(9-7-11)12-4-2-1-3-5-12/h1-9H,10H2,(H,15,16)

$$$$
3069737
  Marvin  11101114192D          

 21 22  0  0  0  0            999 V2000
   -0.0000    9.6536    0.0000 C   0  0  0  0  0  0  0  0  0  0  0  0
   -0.7145    9.2411    0.0000 N   0  0  0  0  0  0  0  0  0  0  0  0
   -1.4289    9.6536    0.0000 C   0  0  0  0  0  0  0  0  0  0  0  0
   -2.1434    9.2411    0.0000 O   0  0  0  0  0  0  0  0  0  0  0  0
   -1.4289   10.4786    0.0000 C   0  0  0  0  0  0  0  0  0  0  0  0
   -2.1434   10.8911    0.0000 Cl  0  0  0  0  0  0  0  0  0  0  0  0
   -0.7145   10.8911    0.0000 Cl  0  0  0  0  0  0  0  0  0  0  0  0
   -0.7145    8.4161    0.0000 C   0  0  0  0  0  0  0  0  0  0  0  0
   -0.0000    8.0036    0.0000 C   0  0  0  0  0  0  0  0  0  0  0  0
   -0.0000    7.1786    0.0000 C   0  0  0  0  0  0  0  0  0  0  0  0
   -0.7145    6.7661    0.0000 C   0  0  0  0  0  0  0  0  0  0  0  0
   -0.7145    5.9411    0.0000 O   0  0  0  0  0  0  0  0  0  0  0  0
   -0.0000    5.5286    0.0000 C   0  0  0  0  0  0  0  0  0  0  0  0
    0.7145    5.9411    0.0000 O   0  0  0  0  0  0  0  0  0  0  0  0
   -0.0000    4.7036    0.0000 C   0  0  0  0  0  0  0  0  0  0  0  0
    0.6674    4.2187    0.0000 C   0  0  0  0  0  0  0  0  0  0  0  0
    0.4125    3.4340    0.0000 C   0  0  0  0  0  0  0  0  0  0  0  0
   -0.4125    3.4340    0.0000 C   0  0  0  0  0  0  0  0  0  0  0  0
   -0.6674    4.2187    0.0000 O   0  0  0  0  0  0  0  0  0  0  0  0
   -1.4289    7.1786    0.0000 C   0  0  0  0  0  0  0  0  0  0  0  0
   -1.4289    8.0036    0.0000 C   0  0  0  0  0  0  0  0  0  0  0  0
  1  2  1  0  0  0  0
  2  3  1  0  0  0  0
  3  4  2  0  0  0  0
  3  5  1  0  0  0  0
  5  6  1  0  0  0  0
  5  7  1  0  0  0  0
  2  8  1  0  0  0  0
  8  9  4  0  0  0  0
  9 10  4  0  0  0  0
 10 11  4  0  0  0  0
 11 12  1  0  0  0  0
 12 13  1  0  0  0  0
 13 14  2  0  0  0  0
 13 15  1  0  0  0  0
 15 16  4  0  0  0  0
 16 17  4  0  0  0  0
 17 18  4  0  0  0  0
 18 19  4  0  0  0  0
 15 19  4  0  0  0  0
 11 20  4  0  0  0  0
 20 21  4  0  0  0  0
  8 21  4  0  0  0  0
M  END

> <ChembankId>
3069737

> <SMILES>
CN(C(=O)C(Cl)Cl)c1ccc(OC(=O)c2ccco2)cc1

> <InChI>
1/C14H11Cl2NO4/c1-17(13(18)12(15)16)9-4-6-10(7-5-9)21-14(19)11-3-2-8-20-11/h2-8,12H,1H3

$$$$
2743
  Marvin  11101114192D          

 17 18  0  0  0  0            999 V2000
    3.2704   -1.5395    0.0000 C   0  0  0  0  0  0  0  0  0  0  0  0
    2.8579   -0.8250    0.0000 C   0  0  0  0  0  0  0  0  0  0  0  0
    2.4454   -0.1105    0.0000 C   0  0  0  0  0  0  0  0  0  0  0  0
    2.1434   -1.2375    0.0000 C   0  0  0  0  0  0  0  0  0  0  0  0
    1.4289   -0.8250    0.0000 O   0  0  0  0  0  0  0  0  0  0  0  0
    2.1434   -2.0625    0.0000 C   0  0  0  0  0  0  0  0  0  0  0  0
    2.8579   -2.4750    0.0000 C   0  0  0  0  0  0  0  0  0  0  0  0
    2.8579   -3.3000    0.0000 C   0  0  0  0  0  0  0  0  0  0  0  0
    2.1434   -3.7125    0.0000 C   0  0  0  0  0  0  0  0  0  0  0  0
    1.4289   -3.3000    0.0000 N   0  0  0  0  0  0  0  0  0  0  0  0
    1.4289   -2.4750    0.0000 C   0  0  0  0  0  0  0  0  0  0  0  0
    3.5724   -0.4125    0.0000 C   0  0  0  0  0  0  0  0  0  0  0  0
    3.5724    0.4125    0.0000 C   0  0  0  0  0  0  0  0  0  0  0  0
    4.2868    0.8250    0.0000 C   0  0  0  0  0  0  0  0  0  0  0  0
    5.0013    0.4125    0.0000 C   0  0  0  0  0  0  0  0  0  0  0  0
    5.0013   -0.4125    0.0000 N   0  0  0  0  0  0  0  0  0  0  0  0
    4.2868   -0.8250    0.0000 C   0  0  0  0  0  0  0  0  0  0  0  0
  1  2  1  0  0  0  0
  2  3  1  0  0  0  0
  2  4  1  0  0  0  0
  4  5  2  0  0  0  0
  4  6  1  0  0  0  0
  6  7  4  0  0  0  0
  7  8  4  0  0  0  0
  8  9  4  0  0  0  0
  9 10  4  0  0  0  0
 10 11  4  0  0  0  0
  6 11  4  0  0  0  0
  2 12  1  0  0  0  0
 12 13  4  0  0  0  0
 13 14  4  0  0  0  0
 14 15  4  0  0  0  0
 15 16  4  0  0  0  0
 16 17  4  0  0  0  0
 12 17  4  0  0  0  0
M  END

> <ChembankId>
2743

> <SMILES>
CC(C)(C(=O)c1cccnc1)c2cccnc2

> <InChI>
1/C14H14N2O/c1-14(2,12-6-4-8-16-10-12)13(17)11-5-3-7-15-9-11/h3-10H,1-2H3

$$$$
3187900
  Marvin  11101114192D          

 28 31  0  0  1  0            999 V2000
   -2.0022   -3.2741    0.0000 C   0  0  0  0  0  0  0  0  0  0  0  0
   -1.1901   -3.1289    0.0000 C   0  0  0  0  0  0  0  0  0  0  0  0
   -0.6582   -3.7596    0.0000 O   0  0  0  0  0  0  0  0  0  0  0  0
   -0.9098   -2.3529    0.0000 O   0  0  0  0  0  0  0  0  0  0  0  0
   -0.0976   -2.2077    0.0000 C   0  0  1  0  0  0  0  0  0  0  0  0
    0.1827   -1.4318    0.0000 C   0  0  0  0  0  0  0  0  0  0  0  0
    0.9948   -1.2866    0.0000 C   0  0  0  0  0  0  0  0  0  0  0  0
    1.5266   -1.9173    0.0000 C   0  0  2  0  0  0  0  0  0  0  0  0
    2.3387   -1.7721    0.0000 C   0  0  1  0  0  0  0  0  0  0  0  0
    2.6190   -0.9961    0.0000 C   0  0  0  0  0  0  0  0  0  0  0  0
    3.4311   -0.8509    0.0000 C   0  0  0  0  0  0  0  0  0  0  0  0
    3.9629   -1.4816    0.0000 C   0  0  1  0  0  0  0  0  0  0  0  0
    4.3228   -0.7393    0.0000 C   0  0  0  0  0  0  0  0  0  0  0  0
    3.6826   -2.2576    0.0000 C   0  0  1  0  0  0  0  0  0  0  0  0
    4.3340   -2.7639    0.0000 C   0  0  0  0  0  0  0  0  0  0  0  0
    5.0168   -2.3009    0.0000 C   0  0  0  0  0  0  0  0  0  0  0  0
    4.7875   -1.5084    0.0000 C   0  0  2  0  0  0  0  0  0  0  0  0
    5.5484   -1.1896    0.0000 O   0  0  0  0  0  0  0  0  0  0  0  0
    6.2050   -1.6891    0.0000 C   0  0  0  0  0  0  0  0  0  0  0  0
    6.9659   -1.3702    0.0000 O   0  0  0  0  0  0  0  0  0  0  0  0
    6.1007   -2.5075    0.0000 C   0  0  0  0  0  0  0  0  0  0  0  0
    4.9089   -0.6924    0.0000 C   0  0  0  0  0  0  0  0  0  0  0  0
    5.0303    0.1236    0.0000 C   0  0  0  0  0  0  0  0  0  0  0  0
    2.8705   -2.4028    0.0000 C   0  0  2  0  0  0  0  0  0  0  0  0
    2.5902   -3.1787    0.0000 C   0  0  0  0  0  0  0  0  0  0  0  0
    1.7781   -3.3239    0.0000 C   0  0  0  0  0  0  0  0  0  0  0  0
    1.2463   -2.6932    0.0000 C   0  0  0  0  0  0  0  0  0  0  0  0
    0.4342   -2.8384    0.0000 C   0  0  0  0  0  0  0  0  0  0  0  0
  1  2  1  0  0  0  0
  2  3  2  0  0  0  0
  2  4  1  0  0  0  0
  5  4  1  1  0  0  0
  5  6  1  0  0  0  0
  6  7  1  0  0  0  0
  7  8  1  0  0  0  0
  8  9  1  0  0  0  0
  9 10  1  1  0  0  0
 10 11  1  0  0  0  0
 11 12  1  0  0  0  0
 12 13  1  1  0  0  0
 12 14  1  0  0  0  0
 14 15  1  1  0  0  0
 15 16  1  0  0  0  0
 16 17  1  0  0  0  0
 12 17  1  0  0  0  0
 17 18  1  1  0  0  0
 18 19  1  0  0  0  0
 19 20  2  0  0  0  0
 19 21  1  0  0  0  0
 17 22  1  6  0  0  0
 22 23  3  0  0  0  0
 14 24  1  0  0  0  0
  9 24  1  0  0  0  0
 24 25  1  6  0  0  0
 25 26  1  0  0  0  0
 26 27  1  0  0  0  0
  8 27  1  6  0  0  0
 27 28  2  0  0  0  0
  5 28  1  0  0  0  0
M  END

> <ChembankId>
3187900

> <SMILES>
CC(=O)O[C@H]1CC[C@@H]2[C@H]3CC[C@@]4(C)[C@@H](CC[C@@]4(OC(=O)C)C#C)[C@@H]3CCC2=C1

> <InChI>
1/C24H32O4/c1-5-24(28-16(3)26)13-11-22-21-8-6-17-14-18(27-15(2)25)7-9-19(17)20(21)10-12-23(22,24)4/h1,14,18-22H,6-13H2,2-4H3

$$$$
1001471
  Marvin  11101114192D          

 15 16  0  0  0  0            999 V2000
    1.4289   -1.6500    0.0000 O   0  0  0  0  0  0  0  0  0  0  0  0
    1.4289   -2.4750    0.0000 C   0  0  0  0  0  0  0  0  0  0  0  0
    2.1434   -2.8875    0.0000 C   0  0  0  0  0  0  0  0  0  0  0  0
    2.1434   -3.7125    0.0000 C   0  0  0  0  0  0  0  0  0  0  0  0
    1.4289   -4.1250    0.0000 C   0  0  0  0  0  0  0  0  0  0  0  0
    1.4289   -4.9500    0.0000 O   0  0  0  0  0  0  0  0  0  0  0  0
    2.1434   -5.3625    0.0000 C   0  0  0  0  0  0  0  0  0  0  0  0
    2.1434   -6.1875    0.0000 C   0  0  0  0  0  0  0  0  0  0  0  0
    2.8579   -6.6000    0.0000 C   0  0  0  0  0  0  0  0  0  0  0  0
    2.8579   -7.4250    0.0000 C   0  0  0  0  0  0  0  0  0  0  0  0
    2.1434   -7.8375    0.0000 C   0  0  0  0  0  0  0  0  0  0  0  0
    1.4289   -7.4250    0.0000 C   0  0  0  0  0  0  0  0  0  0  0  0
    1.4289   -6.6000    0.0000 C   0  0  0  0  0  0  0  0  0  0  0  0
    0.7145   -3.7125    0.0000 C   0  0  0  0  0  0  0  0  0  0  0  0
    0.7145   -2.8875    0.0000 C   0  0  0  0  0  0  0  0  0  0  0  0
  1  2  1  0  0  0  0
  2  3  4  0  0  0  0
  3  4  4  0  0  0  0
  4  5  4  0  0  0  0
  5  6  1  0  0  0  0
  6  7  1  0  0  0  0
  7  8  1  0  0  0  0
  8  9  4  0  0  0  0
  9 10  4  0  0  0  0
 10 11  4  0  0  0  0
 11 12  4  0  0  0  0
 12 13  4  0  0  0  0
  8 13  4  0  0  0  0
  5 14  4  0  0  0  0
 14 15  4  0  0  0  0
  2 15  4  0  0  0  0
M  END

> <ChembankId>
1001471

> <SMILES>
Oc1ccc(OCc2ccccc2)cc1

> <InChI>
1/C13H12O2/c14-12-6-8-13(9-7-12)15-10-11-4-2-1-3-5-11/h1-9,14H,10H2

$$$$
1007994
  Marvin  11101114192D          

 37 38  0  0  0  0            999 V2000
   11.4315   -1.6500    0.0000 C   0  0  0  0  0  0  0  0  0  0  0  0
   12.1460   -1.2375    0.0000 C   0  0  0  0  0  0  0  0  0  0  0  0
   12.8605   -1.6500    0.0000 C   0  0  0  0  0  0  0  0  0  0  0  0
   13.5749   -1.2375    0.0000 C   0  0  0  0  0  0  0  0  0  0  0  0
   14.2894   -1.6500    0.0000 C   0  0  0  0  0  0  0  0  0  0  0  0
   15.0039   -1.2375    0.0000 C   0  0  0  0  0  0  0  0  0  0  0  0
   15.7184   -1.6500    0.0000 C   0  0  0  0  0  0  0  0  0  0  0  0
   16.4328   -1.2375    0.0000 C   0  0  0  0  0  0  0  0  0  0  0  0
   17.1473   -1.6500    0.0000 C   0  0  0  0  0  0  0  0  0  0  0  0
   17.8618   -1.2375    0.0000 C   0  0  0  0  0  0  0  0  0  0  0  0
   18.5762   -1.6500    0.0000 C   0  0  0  0  0  0  0  0  0  0  0  0
   19.2907   -1.2375    0.0000 C   0  0  0  0  0  0  0  0  0  0  0  0
   20.0052   -1.6500    0.0000 C   0  0  0  0  0  0  0  0  0  0  0  0
   20.7197   -1.2375    0.0000 C   0  0  0  0  0  0  0  0  0  0  0  0
   21.4341   -1.6500    0.0000 C   0  0  0  0  0  0  0  0  0  0  0  0
   22.1486   -1.2375    0.0000 C   0  0  0  0  0  0  0  0  0  0  0  0
   22.8631   -1.6500    0.0000 N   0  3  0  0  0  0  0  0  0  0  0  0
   22.4506   -2.3645    0.0000 C   0  0  0  0  0  0  0  0  0  0  0  0
   23.2756   -0.9355    0.0000 C   0  0  0  0  0  0  0  0  0  0  0  0
   23.5775   -2.0625    0.0000 C   0  0  0  0  0  0  0  0  0  0  0  0
   24.2920   -1.6500    0.0000 C   0  0  0  0  0  0  0  0  0  0  0  0
   25.0065   -2.0625    0.0000 N   0  0  0  0  0  0  0  0  0  0  0  0
   25.7210   -1.6500    0.0000 C   0  0  0  0  0  0  0  0  0  0  0  0
   26.4354   -2.0625    0.0000 C   0  0  0  0  0  0  0  0  0  0  0  0
   27.1499   -1.6500    0.0000 C   0  0  0  0  0  0  0  0  0  0  0  0
   27.8644   -2.0625    0.0000 C   0  0  0  0  0  0  0  0  0  0  0  0
   27.8644   -2.8875    0.0000 C   0  0  0  0  0  0  0  0  0  0  0  0
   28.5788   -3.3000    0.0000 O   0  0  0  0  0  0  0  0  0  0  0  0
   29.2933   -2.8875    0.0000 C   0  0  0  0  0  0  0  0  0  0  0  0
   27.1499   -3.3000    0.0000 C   0  0  0  0  0  0  0  0  0  0  0  0
   26.4354   -2.8875    0.0000 C   0  0  0  0  0  0  0  0  0  0  0  0
   25.0065   -2.8875    0.0000 C   0  0  0  0  0  0  0  0  0  0  0  0
   25.7210   -3.3000    0.0000 N   0  0  0  0  0  0  0  0  0  0  0  0
   25.7210   -4.1250    0.0000 C   0  0  0  0  0  0  0  0  0  0  0  0
   25.0065   -4.5375    0.0000 C   0  0  0  0  0  0  0  0  0  0  0  0
   24.2920   -4.1250    0.0000 C   0  0  0  0  0  0  0  0  0  0  0  0
   24.2920   -3.3000    0.0000 N   0  0  0  0  0  0  0  0  0  0  0  0
  1  2  1  0  0  0  0
  2  3  1  0  0  0  0
  3  4  1  0  0  0  0
  4  5  1  0  0  0  0
  5  6  1  0  0  0  0
  6  7  1  0  0  0  0
  7  8  1  0  0  0  0
  8  9  1  0  0  0  0
  9 10  1  0  0  0  0
 10 11  1  0  0  0  0
 11 12  1  0  0  0  0
 12 13  1  0  0  0  0
 13 14  1  0  0  0  0
 14 15  1  0  0  0  0
 15 16  1  0  0  0  0
 16 17  1  0  0  0  0
 17 18  1  0  0  0  0
 17 19  1  0  0  0  0
 17 20  1  0  0  0  0
 20 21  1  0  0  0  0
 21 22  1  0  0  0  0
 22 23  1  0  0  0  0
 23 24  1  0  0  0  0
 24 25  4  0  0  0  0
 25 26  4  0  0  0  0
 26 27  4  0  0  0  0
 27 28  1  0  0  0  0
 28 29  1  0  0  0  0
 27 30  4  0  0  0  0
 30 31  4  0  0  0  0
 24 31  4  0  0  0  0
 22 32  1  0  0  0  0
 32 33  4  0  0  0  0
 33 34  4  0  0  0  0
 34 35  4  0  0  0  0
 35 36  4  0  0  0  0
 36 37  4  0  0  0  0
 32 37  4  0  0  0  0
M  CHG  1  17   1
M  END

> <ChembankId>
1007994

> <SMILES>
CCCCCCCCCCCCCCCC[N+](C)(C)CCN(Cc1ccc(OC)cc1)c2ncccn2

> <InChI>
1/C32H55N4O/c1-5-6-7-8-9-10-11-12-13-14-15-16-17-18-27-36(2,3)28-26-35(32-33-24-19-25-34-32)29-30-20-22-31(37-4)23-21-30/h19-25H,5-18,26-29H2,1-4H3/q+1

$$$$
2685
  Marvin  11101114192D          

 34 35  0  0  0  0            999 V2000
   -1.4289   -4.9500    0.0000 O   0  0  0  0  0  0  0  0  0  0  0  0
   -0.7145   -5.3625    0.0000 C   0  0  0  0  0  0  0  0  0  0  0  0
   -0.7145   -6.1875    0.0000 O   0  0  0  0  0  0  0  0  0  0  0  0
    0.0000   -4.9500    0.0000 C   0  0  0  0  0  0  0  0  0  0  0  0
    0.0000   -4.1250    0.0000 C   0  0  0  0  0  0  0  0  0  0  0  0
   -0.7145   -3.7125    0.0000 I   0  0  0  0  0  0  0  0  0  0  0  0
    0.7145   -3.7125    0.0000 C   0  0  0  0  0  0  0  0  0  0  0  0
    1.4289   -4.1250    0.0000 C   0  0  0  0  0  0  0  0  0  0  0  0
    2.1434   -3.7125    0.0000 I   0  0  0  0  0  0  0  0  0  0  0  0
    1.4289   -4.9500    0.0000 C   0  0  0  0  0  0  0  0  0  0  0  0
    2.1434   -5.3625    0.0000 N   0  0  0  0  0  0  0  0  0  0  0  0
    2.8579   -4.9500    0.0000 C   0  0  0  0  0  0  0  0  0  0  0  0
    2.8579   -4.1250    0.0000 O   0  0  0  0  0  0  0  0  0  0  0  0
    3.5724   -5.3625    0.0000 C   0  0  0  0  0  0  0  0  0  0  0  0
    4.2868   -4.9500    0.0000 C   0  0  0  0  0  0  0  0  0  0  0  0
    5.0013   -5.3625    0.0000 C   0  0  0  0  0  0  0  0  0  0  0  0
    5.7158   -4.9500    0.0000 C   0  0  0  0  0  0  0  0  0  0  0  0
    6.4302   -5.3625    0.0000 C   0  0  0  0  0  0  0  0  0  0  0  0
    6.4302   -6.1875    0.0000 O   0  0  0  0  0  0  0  0  0  0  0  0
    7.1447   -4.9500    0.0000 N   0  0  0  0  0  0  0  0  0  0  0  0
    7.8592   -5.3625    0.0000 C   0  0  0  0  0  0  0  0  0  0  0  0
    8.5737   -4.9500    0.0000 C   0  0  0  0  0  0  0  0  0  0  0  0
    8.5737   -4.1250    0.0000 I   0  0  0  0  0  0  0  0  0  0  0  0
    9.2881   -5.3625    0.0000 C   0  0  0  0  0  0  0  0  0  0  0  0
    9.2881   -6.1875    0.0000 C   0  0  0  0  0  0  0  0  0  0  0  0
   10.0026   -6.6000    0.0000 I   0  0  0  0  0  0  0  0  0  0  0  0
    8.5737   -6.6000    0.0000 C   0  0  0  0  0  0  0  0  0  0  0  0
    8.5737   -7.4250    0.0000 C   0  0  0  0  0  0  0  0  0  0  0  0
    7.8592   -7.8375    0.0000 O   0  0  0  0  0  0  0  0  0  0  0  0
    9.2881   -7.8375    0.0000 O   0  0  0  0  0  0  0  0  0  0  0  0
    7.8592   -6.1875    0.0000 C   0  0  0  0  0  0  0  0  0  0  0  0
    7.1447   -6.6000    0.0000 I   0  0  0  0  0  0  0  0  0  0  0  0
    0.7145   -5.3625    0.0000 C   0  0  0  0  0  0  0  0  0  0  0  0
    0.7145   -6.1875    0.0000 I   0  0  0  0  0  0  0  0  0  0  0  0
  1  2  1  0  0  0  0
  2  3  2  0  0  0  0
  2  4  1  0  0  0  0
  4  5  4  0  0  0  0
  5  6  1  0  0  0  0
  5  7  4  0  0  0  0
  7  8  4  0  0  0  0
  8  9  1  0  0  0  0
  8 10  4  0  0  0  0
 10 11  1  0  0  0  0
 11 12  1  0  0  0  0
 12 13  2  0  0  0  0
 12 14  1  0  0  0  0
 14 15  1  0  0  0  0
 15 16  1  0  0  0  0
 16 17  1  0  0  0  0
 17 18  1  0  0  0  0
 18 19  2  0  0  0  0
 18 20  1  0  0  0  0
 20 21  1  0  0  0  0
 21 22  4  0  0  0  0
 22 23  1  0  0  0  0
 22 24  4  0  0  0  0
 24 25  4  0  0  0  0
 25 26  1  0  0  0  0
 25 27  4  0  0  0  0
 27 28  1  0  0  0  0
 28 29  2  0  0  0  0
 28 30  1  0  0  0  0
 27 31  4  0  0  0  0
 21 31  4  0  0  0  0
 31 32  1  0  0  0  0
 10 33  4  0  0  0  0
  4 33  4  0  0  0  0
 33 34  1  0  0  0  0
M  END

> <ChembankId>
2685

> <SMILES>
OC(=O)c1c(I)cc(I)c(NC(=O)CCCCC(=O)Nc2c(I)cc(I)c(C(=O)O)c2I)c1I

> <InChI>
1/C20H14I6N2O6/c21-7-5-9(23)17(15(25)13(7)19(31)32)27-11(29)3-1-2-4-12(30)28-18-10(24)6-8(22)14(16(18)26)20(33)34/h5-6H,1-4H2,(H,27,29)(H,28,30)(H,31,32)(H,33,34)

$$$$
2844
  Marvin  11101114192D          

 25 28  0  0  1  0            999 V2000
   -2.2774   -5.9278    0.0000 C   0  0  0  0  0  0  0  0  0  0  0  0
   -2.2764   -5.1028    0.0000 C   0  0  0  0  0  0  0  0  0  0  0  0
   -1.5615   -4.6911    0.0000 N   0  0  0  0  0  0  0  0  0  0  0  0
   -0.8475   -5.1045    0.0000 C   0  0  0  0  0  0  0  0  0  0  0  0
   -0.8485   -5.9295    0.0000 C   0  0  0  0  0  0  0  0  0  0  0  0
   -1.5605   -3.8661    0.0000 C   0  0  0  0  0  0  0  0  0  0  0  0
   -2.2745   -3.4528    0.0000 O   0  0  0  0  0  0  0  0  0  0  0  0
   -0.8455   -3.4545    0.0000 N   0  0  0  0  0  0  0  0  0  0  0  0
   -0.8445   -2.6295    0.0000 C   0  0  1  0  0  0  0  0  0  0  0  0
   -0.1296   -2.2179    0.0000 C   0  0  0  0  0  0  0  0  0  0  0  0
   -0.1286   -1.3929    0.0000 C   0  0  1  0  0  0  0  0  0  0  0  0
   -0.8425   -0.9795    0.0000 C   0  0  1  0  0  0  0  0  0  0  0  0
   -0.8411   -0.1554    0.0000 C   0  0  0  0  0  0  0  0  0  0  0  0
   -0.1286    0.2571    0.0000 C   0  0  0  0  0  0  0  0  0  0  0  0
    0.1714    1.1143    0.0000 C   0  0  0  0  0  0  0  0  0  0  0  0
    0.9964    1.1143    0.0000 N   0  0  0  0  0  0  0  0  0  0  0  0
    1.3018    0.2571    0.0000 C   0  0  0  0  0  0  0  0  0  0  0  0
    2.0143   -0.1554    0.0000 C   0  0  0  0  0  0  0  0  0  0  0  0
    2.0143   -0.9804    0.0000 C   0  0  0  0  0  0  0  0  0  0  0  0
    1.3018   -1.3929    0.0000 C   0  0  0  0  0  0  0  0  0  0  0  0
    0.5839   -0.9804    0.0000 C   0  0  0  0  0  0  0  0  0  0  0  0
    0.5839   -0.1554    0.0000 C   0  0  0  0  0  0  0  0  0  0  0  0
   -1.5575   -1.3911    0.0000 N   0  0  0  0  0  0  0  0  0  0  0  0
   -2.2715   -0.9778    0.0000 C   0  0  0  0  0  0  0  0  0  0  0  0
   -1.5585   -2.2161    0.0000 C   0  0  0  0  0  0  0  0  0  0  0  0
  1  2  1  0  0  0  0
  2  3  1  0  0  0  0
  3  4  1  0  0  0  0
  4  5  1  0  0  0  0
  3  6  1  0  0  0  0
  6  7  2  0  0  0  0
  6  8  1  0  0  0  0
  9  8  1  6  0  0  0
  9 10  1  0  0  0  0
 11 10  1  1  0  0  0
 11 12  1  0  0  0  0
 12 13  1  0  0  0  0
 13 14  1  0  0  0  0
 14 15  4  0  0  0  0
 15 16  4  0  0  0  0
 16 17  4  0  0  0  0
 17 18  4  0  0  0  0
 18 19  4  0  0  0  0
 19 20  4  0  0  0  0
 20 21  4  0  0  0  0
 11 21  1  0  0  0  0
 21 22  4  0  0  0  0
 14 22  4  0  0  0  0
 17 22  4  0  0  0  0
 12 23  1  6  0  0  0
 23 24  1  0  0  0  0
 23 25  1  0  0  0  0
  9 25  1  0  0  0  0
M  STY  1   1 DAT
M  SAL   1  1  16
M  SDT   1 MRV_IMPLICIT_H                                        
M  SDD   1     0.0000    0.0000    DR    ALL  0       0  
M  SED   1 IMPL_H1
M  END

> <ChembankId>
2844

> <SMILES>
CCN(CC)C(=O)N[C@H]1C[C@H]2[C@@H](Cc3c[nH]c4cccc2c34)N(C)C1

> <InChI>
1/C20H28N4O/c1-4-24(5-2)20(25)22-14-10-16-15-7-6-8-17-19(15)13(11-21-17)9-18(16)23(3)12-14/h6-8,11,14,16,18,21H,4-5,9-10,12H2,1-3H3,(H,22,25)

$$$$
3069771
  Marvin  11101114192D          

 24 27  0  0  1  0            999 V2000
    3.5330   -3.2587    0.0000 C   0  0  0  0  0  0  0  0  0  0  0  0
    3.8928   -2.5163    0.0000 C   0  0  2  0  0  0  0  0  0  0  0  0
    4.4247   -3.1470    0.0000 C   0  0  0  0  0  0  0  0  0  0  0  0
    5.2368   -3.0018    0.0000 C   0  0  0  0  0  0  0  0  0  0  0  0
    5.5171   -2.2259    0.0000 C   0  0  1  0  0  0  0  0  0  0  0  0
    4.9853   -1.5952    0.0000 C   0  0  1  0  0  0  0  0  0  0  0  0
    5.2655   -0.8192    0.0000 C   0  0  0  0  0  0  0  0  0  0  0  0
    6.0777   -0.6740    0.0000 C   0  0  0  0  0  0  0  0  0  0  0  0
    6.6095   -1.3047    0.0000 C   0  0  0  0  0  0  0  0  0  0  0  0
    7.4216   -1.1595    0.0000 C   0  0  0  0  0  0  0  0  0  0  0  0
    7.9534   -1.7902    0.0000 C   0  0  0  0  0  0  0  0  0  0  0  0
    8.7655   -1.6450    0.0000 O   0  0  0  0  0  0  0  0  0  0  0  0
    7.6731   -2.5662    0.0000 C   0  0  0  0  0  0  0  0  0  0  0  0
    6.8610   -2.7114    0.0000 C   0  0  0  0  0  0  0  0  0  0  0  0
    6.3292   -2.0807    0.0000 C   0  0  2  0  0  0  0  0  0  0  0  0
    6.0489   -2.8566    0.0000 C   0  0  0  0  0  0  0  0  0  0  0  0
    4.1731   -1.7404    0.0000 C   0  0  2  0  0  0  0  0  0  0  0  0
    3.5218   -1.2340    0.0000 C   0  0  0  0  0  0  0  0  0  0  0  0
    2.8390   -1.6970    0.0000 C   0  0  0  0  0  0  0  0  0  0  0  0
    3.0683   -2.4895    0.0000 C   0  0  2  0  0  0  0  0  0  0  0  0
    2.5619   -3.1408    0.0000 C   0  0  0  0  0  0  0  0  0  0  0  0
    2.8728   -3.9050    0.0000 O   0  0  0  0  0  0  0  0  0  0  0  0
    1.7447   -3.0280    0.0000 C   0  0  0  0  0  0  0  0  0  0  0  0
    1.2383   -3.6793    0.0000 O   0  0  0  0  0  0  0  0  0  0  0  0
  2  1  1  1  0  0  0
  2  3  1  0  0  0  0
  3  4  1  0  0  0  0
  5  4  1  1  0  0  0
  5  6  1  0  0  0  0
  6  7  1  6  0  0  0
  7  8  1  0  0  0  0
  8  9  1  0  0  0  0
  9 10  2  0  0  0  0
 10 11  1  0  0  0  0
 11 12  2  0  0  0  0
 11 13  1  0  0  0  0
 13 14  1  0  0  0  0
 14 15  1  0  0  0  0
  5 15  1  0  0  0  0
  9 15  1  0  0  0  0
 15 16  1  1  0  0  0
  6 17  1  0  0  0  0
  2 17  1  0  0  0  0
 17 18  1  1  0  0  0
 18 19  1  0  0  0  0
 19 20  1  0  0  0  0
  2 20  1  0  0  0  0
 20 21  1  1  0  0  0
 21 22  2  0  0  0  0
 21 23  1  0  0  0  0
 23 24  1  0  0  0  0
M  END

> <ChembankId>
3069771

> <SMILES>
C[C@@]12CC[C@H]3[C@@H](CCC4=CC(=O)CC[C@]34C)[C@@H]2CC[C@@H]1C(=O)CO

> <InChI>
1/C21H30O3/c1-20-9-7-14(23)11-13(20)3-4-15-16-5-6-18(19(24)12-22)21(16,2)10-8-17(15)20/h11,15-18,22H,3-10,12H2,1-2H3

$$$$
4481
  Marvin  11101114192D          

 21 21  0  0  0  0            999 V2000
   -2.5046    0.1105    0.0000 C   0  0  0  0  0  0  0  0  0  0  0  0
   -2.0921    0.8250    0.0000 C   0  0  0  0  0  0  0  0  0  0  0  0
   -1.2671    0.8250    0.0000 C   0  0  0  0  0  0  0  0  0  0  0  0
   -0.8546    1.5395    0.0000 O   0  0  0  0  0  0  0  0  0  0  0  0
   -0.0296    1.5395    0.0000 C   0  0  0  0  0  0  0  0  0  0  0  0
    0.3829    2.2539    0.0000 C   0  0  0  0  0  0  0  0  0  0  0  0
    1.2079    2.2539    0.0000 C   0  0  0  0  0  0  0  0  0  0  0  0
    1.6204    1.5395    0.0000 C   0  0  0  0  0  0  0  0  0  0  0  0
    1.2079    0.8250    0.0000 C   0  0  0  0  0  0  0  0  0  0  0  0
    0.3829    0.8250    0.0000 C   0  0  0  0  0  0  0  0  0  0  0  0
   -0.0296    0.1105    0.0000 N   0  0  0  0  0  0  0  0  0  0  0  0
    2.4454    1.5395    0.0000 C   0  0  0  0  0  0  0  0  0  0  0  0
    2.8579    2.2539    0.0000 O   0  0  0  0  0  0  0  0  0  0  0  0
    2.8579    0.8250    0.0000 O   0  0  0  0  0  0  0  0  0  0  0  0
    3.6829    0.8250    0.0000 C   0  0  0  0  0  0  0  0  0  0  0  0
    4.0954    0.1105    0.0000 C   0  0  0  0  0  0  0  0  0  0  0  0
    4.9204    0.1105    0.0000 N   0  0  0  0  0  0  0  0  0  0  0  0
    5.3329   -0.6039    0.0000 C   0  0  0  0  0  0  0  0  0  0  0  0
    6.1579   -0.6039    0.0000 C   0  0  0  0  0  0  0  0  0  0  0  0
    5.3329    0.8250    0.0000 C   0  0  0  0  0  0  0  0  0  0  0  0
    6.1579    0.8250    0.0000 C   0  0  0  0  0  0  0  0  0  0  0  0
  1  2  1  0  0  0  0
  2  3  1  0  0  0  0
  3  4  1  0  0  0  0
  4  5  1  0  0  0  0
  5  6  4  0  0  0  0
  6  7  4  0  0  0  0
  7  8  4  0  0  0  0
  8  9  4  0  0  0  0
  9 10  4  0  0  0  0
  5 10  4  0  0  0  0
 10 11  1  0  0  0  0
  8 12  1  0  0  0  0
 12 13  2  0  0  0  0
 12 14  1  0  0  0  0
 14 15  1  0  0  0  0
 15 16  1  0  0  0  0
 16 17  1  0  0  0  0
 17 18  1  0  0  0  0
 18 19  1  0  0  0  0
 17 20  1  0  0  0  0
 20 21  1  0  0  0  0
M  END

> <ChembankId>
4481

> <SMILES>
CCCOc1ccc(cc1N)C(=O)OCCN(CC)CC

> <InChI>
1/C16H26N2O3/c1-4-10-20-15-8-7-13(12-14(15)17)16(19)21-11-9-18(5-2)6-3/h7-8,12H,4-6,9-11,17H2,1-3H3

$$$$
3188026
  Marvin  11101114192D          

 22 23  0  0  1  0            999 V2000
    3.4656   -1.2991    0.0000 C   0  0  0  0  0  0  0  0  0  0  0  0
    2.7512   -1.7116    0.0000 C   0  0  0  0  0  0  0  0  0  0  0  0
    2.7512   -2.5366    0.0000 N   0  0  0  0  0  0  0  0  0  0  0  0
    3.4186   -3.0215    0.0000 C   0  0  0  0  0  0  0  0  0  0  0  0
    3.1637   -3.8062    0.0000 C   0  0  0  0  0  0  0  0  0  0  0  0
    2.3387   -3.8062    0.0000 C   0  0  0  0  0  0  0  0  0  0  0  0
    2.0837   -3.0215    0.0000 C   0  0  1  0  0  0  0  0  0  0  0  0
    1.2991   -2.7666    0.0000 C   0  0  0  0  0  0  0  0  0  0  0  0
    1.1276   -1.9596    0.0000 N   0  0  0  0  0  0  0  0  0  0  0  0
    0.3430   -1.7047    0.0000 C   0  0  0  0  0  0  0  0  0  0  0  0
   -0.2701   -2.2567    0.0000 O   0  0  0  0  0  0  0  0  0  0  0  0
    0.1714   -0.8977    0.0000 C   0  0  0  0  0  0  0  0  0  0  0  0
   -0.6132   -0.6428    0.0000 C   0  0  0  0  0  0  0  0  0  0  0  0
   -1.2263   -1.1948    0.0000 O   0  0  0  0  0  0  0  0  0  0  0  0
   -2.0109   -0.9399    0.0000 C   0  0  0  0  0  0  0  0  0  0  0  0
   -0.7847    0.1642    0.0000 C   0  0  0  0  0  0  0  0  0  0  0  0
   -0.1716    0.7162    0.0000 C   0  0  0  0  0  0  0  0  0  0  0  0
    0.6130    0.4613    0.0000 C   0  0  0  0  0  0  0  0  0  0  0  0
    1.2261    1.0133    0.0000 Br  0  0  0  0  0  0  0  0  0  0  0  0
    0.7845   -0.3457    0.0000 C   0  0  0  0  0  0  0  0  0  0  0  0
    1.5692   -0.6006    0.0000 O   0  0  0  0  0  0  0  0  0  0  0  0
    1.7407   -1.4076    0.0000 C   0  0  0  0  0  0  0  0  0  0  0  0
  1  2  1  0  0  0  0
  2  3  1  0  0  0  0
  3  4  1  0  0  0  0
  4  5  1  0  0  0  0
  5  6  1  0  0  0  0
  6  7  1  0  0  0  0
  3  7  1  0  0  0  0
  7  8  1  1  0  0  0
  8  9  1  0  0  0  0
  9 10  1  0  0  0  0
 10 11  2  0  0  0  0
 10 12  1  0  0  0  0
 12 13  4  0  0  0  0
 13 14  1  0  0  0  0
 14 15  1  0  0  0  0
 13 16  4  0  0  0  0
 16 17  4  0  0  0  0
 17 18  4  0  0  0  0
 18 19  1  0  0  0  0
 18 20  4  0  0  0  0
 12 20  4  0  0  0  0
 20 21  1  0  0  0  0
 21 22  1  0  0  0  0
M  END

> <ChembankId>
3188026

> <SMILES>
CCN1CCC[C@H]1CNC(=O)c2c(OC)ccc(Br)c2OC

> <InChI>
1/C16H23BrN2O3/c1-4-19-9-5-6-11(19)10-18-16(20)14-13(21-2)8-7-12(17)15(14)22-3/h7-8,11H,4-6,9-10H2,1-3H3,(H,18,20)

$$$$
2742
  Marvin  11101114192D          

 17 18  0  0  0  0            999 V2000
   -2.9646    5.5902    0.0000 O   0  0  0  0  0  0  0  0  0  0  0  0
   -2.2501    6.0027    0.0000 C   0  0  0  0  0  0  0  0  0  0  0  0
   -2.2501    6.8277    0.0000 O   0  0  0  0  0  0  0  0  0  0  0  0
   -1.5356    5.5902    0.0000 C   0  0  0  0  0  0  0  0  0  0  0  0
   -0.8212    6.0027    0.0000 C   0  0  0  0  0  0  0  0  0  0  0  0
   -0.1067    5.5902    0.0000 C   0  0  0  0  0  0  0  0  0  0  0  0
    0.6078    6.0027    0.0000 C   0  0  0  0  0  0  0  0  0  0  0  0
    1.3222    5.5902    0.0000 C   0  0  0  0  0  0  0  0  0  0  0  0
    1.3222    4.7652    0.0000 C   0  0  0  0  0  0  0  0  0  0  0  0
    2.0367    4.3527    0.0000 C   0  0  0  0  0  0  0  0  0  0  0  0
    2.0367    3.5277    0.0000 N   0  0  0  0  0  0  0  0  0  0  0  0
    2.7041    3.0428    0.0000 C   0  0  0  0  0  0  0  0  0  0  0  0
    2.4492    2.2581    0.0000 C   0  0  0  0  0  0  0  0  0  0  0  0
    1.6242    2.2581    0.0000 N   0  0  0  0  0  0  0  0  0  0  0  0
    1.3693    3.0428    0.0000 C   0  0  0  0  0  0  0  0  0  0  0  0
    0.6078    4.3527    0.0000 C   0  0  0  0  0  0  0  0  0  0  0  0
   -0.1067    4.7652    0.0000 C   0  0  0  0  0  0  0  0  0  0  0  0
  1  2  1  0  0  0  0
  2  3  2  0  0  0  0
  2  4  1  0  0  0  0
  4  5  2  0  0  0  0
  5  6  1  0  0  0  0
  6  7  4  0  0  0  0
  7  8  4  0  0  0  0
  8  9  4  0  0  0  0
  9 10  1  0  0  0  0
 10 11  1  0  0  0  0
 11 12  4  0  0  0  0
 12 13  4  0  0  0  0
 13 14  4  0  0  0  0
 14 15  4  0  0  0  0
 11 15  4  0  0  0  0
  9 16  4  0  0  0  0
 16 17  4  0  0  0  0
  6 17  4  0  0  0  0
M  END

> <ChembankId>
2742

> <SMILES>
OC(=O)/C=C/c1ccc(Cn2ccnc2)cc1

> <InChI>
1/C13H12N2O2/c16-13(17)6-5-11-1-3-12(4-2-11)9-15-8-7-14-10-15/h1-8,10H,9H2,(H,16,17)

$$$$
3188028
  Marvin  11101114192D          

 38 43  0  0  1  0            999 V2000
   -3.0946   -4.1952    0.0000 C   0  0  0  0  0  0  0  0  0  0  0  0
   -2.2825   -4.0500    0.0000 C   0  0  0  0  0  0  0  0  0  0  0  0
   -2.0022   -3.2741    0.0000 O   0  0  0  0  0  0  0  0  0  0  0  0
   -1.1901   -3.1289    0.0000 C   0  0  1  0  0  0  0  0  0  0  0  0
   -0.9098   -2.3529    0.0000 O   0  0  0  0  0  0  0  0  0  0  0  0
   -0.0976   -2.2077    0.0000 C   0  0  1  0  0  0  0  0  0  0  0  0
    0.1827   -1.4318    0.0000 C   0  0  0  0  0  0  0  0  0  0  0  0
    0.9948   -1.2866    0.0000 C   0  0  0  0  0  0  0  0  0  0  0  0
    1.5266   -1.9173    0.0000 C   0  0  2  0  0  0  0  0  0  0  0  0
    1.8069   -1.1414    0.0000 C   0  0  0  0  0  0  0  0  0  0  0  0
    2.3387   -1.7721    0.0000 C   0  0  0  0  0  0  0  0  0  0  0  0
    2.6190   -0.9961    0.0000 C   0  0  0  0  0  0  0  0  0  0  0  0
    3.4311   -0.8509    0.0000 C   0  0  0  0  0  0  0  0  0  0  0  0
    3.9629   -1.4816    0.0000 C   0  0  2  0  0  0  0  0  0  0  0  0
    4.3228   -0.7393    0.0000 C   0  0  0  0  0  0  0  0  0  0  0  0
    4.7875   -1.5084    0.0000 C   0  0  2  0  0  0  0  0  0  0  0  0
    5.0168   -2.3009    0.0000 C   0  0  0  0  0  0  0  0  0  0  0  0
    4.3340   -2.7639    0.0000 C   0  0  0  0  0  0  0  0  0  0  0  0
    3.6826   -2.2576    0.0000 C   0  0  1  0  0  0  0  0  0  0  0  0
    3.4850   -3.0585    0.0000 O   0  0  0  0  0  0  0  0  0  0  0  0
    2.8705   -2.4028    0.0000 C   0  0  0  0  0  0  0  0  0  0  0  0
    2.5902   -3.1787    0.0000 C   0  0  0  0  0  0  0  0  0  0  0  0
    1.7781   -3.3239    0.0000 C   0  0  0  0  0  0  0  0  0  0  0  0
    1.2463   -2.6932    0.0000 C   0  0  0  0  0  0  0  0  0  0  0  0
    0.4342   -2.8384    0.0000 C   0  0  0  0  0  0  0  0  0  0  0  0
    5.2939   -0.8571    0.0000 C   0  0  0  0  0  0  0  0  0  0  0  0
    4.9830   -0.0929    0.0000 C   0  0  0  0  0  0  0  0  0  0  0  0
    5.4893    0.5584    0.0000 C   0  0  0  0  0  0  0  0  0  0  0  0
    6.3066    0.4455    0.0000 C   0  0  0  0  0  0  0  0  0  0  0  0
    6.8129    1.0969    0.0000 O   0  0  0  0  0  0  0  0  0  0  0  0
    6.6175   -0.3186    0.0000 O   0  0  0  0  0  0  0  0  0  0  0  0
    6.1111   -0.9700    0.0000 C   0  0  0  0  0  0  0  0  0  0  0  0
   -0.6582   -3.7596    0.0000 C   0  0  0  0  0  0  0  0  0  0  0  0
    0.1539   -3.6143    0.0000 O   0  0  0  0  0  0  0  0  0  0  0  0
   -0.9385   -4.5355    0.0000 C   0  0  1  0  0  0  0  0  0  0  0  0
   -0.4067   -5.1662    0.0000 O   0  0  0  0  0  0  0  0  0  0  0  0
   -1.7507   -4.6807    0.0000 C   0  0  1  0  0  0  0  0  0  0  0  0
   -2.0310   -5.4566    0.0000 O   0  0  0  0  0  0  0  0  0  0  0  0
  1  2  1  0  0  0  0
  2  3  1  0  0  0  0
  3  4  1  0  0  0  0
  4  5  1  1  0  0  0
  6  5  1  1  0  0  0
  6  7  1  0  0  0  0
  7  8  1  0  0  0  0
  8  9  1  0  0  0  0
  9 10  1  1  0  0  0
  9 11  1  0  0  0  0
 11 12  1  0  0  0  0
 12 13  1  0  0  0  0
 13 14  1  0  0  0  0
 14 15  1  1  0  0  0
 14 16  1  0  0  0  0
 16 17  1  0  0  0  0
 17 18  1  0  0  0  0
 18 19  1  0  0  0  0
 14 19  1  0  0  0  0
 19 20  1  1  0  0  0
 19 21  1  0  0  0  0
 11 21  1  0  0  0  0
 21 22  1  0  0  0  0
 22 23  1  0  0  0  0
 23 24  1  0  0  0  0
  9 24  1  0  0  0  0
 24 25  2  0  0  0  0
  6 25  1  0  0  0  0
 16 26  1  1  0  0  0
 26 27  4  0  0  0  0
 27 28  4  0  0  0  0
 28 29  4  0  0  0  0
 29 30  2  0  0  0  0
 29 31  4  0  0  0  0
 31 32  4  0  0  0  0
 26 32  4  0  0  0  0
  4 33  1  0  0  0  0
 33 34  1  0  0  0  0
 33 35  1  0  0  0  0
 35 36  1  1  0  0  0
 35 37  1  0  0  0  0
  2 37  1  0  0  0  0
 37 38  1  1  0  0  0
M  END

> <ChembankId>
3188028

> <SMILES>
CC1O[C@@H](O[C@H]2CC[C@]3(C)C4CC[C@]5(C)[C@H](CC[C@]5(O)C4CCC3=C2)c6ccc(=O)oc6)C(O)[C@@H](O)[C@H]1O

> <InChI>
1/C30H42O8/c1-16-24(32)25(33)26(34)27(37-16)38-19-8-11-28(2)18(14-19)5-6-22-21(28)9-12-29(3)20(10-13-30(22,29)35)17-4-7-23(31)36-15-17/h4,7,14-16,19-22,24-27,32-35H,5-6,8-13H2,1-3H3/t16-,19+,20-,21+,22-,24+,25-,26-,27+,28+,29-,30+/m1/s1

$$$$
2080
  Marvin  11101114192D          

 23 23  0  0  0  0            999 V2000
   -2.8579    2.4750    0.0000 C   0  0  0  0  0  0  0  0  0  0  0  0
   -2.1434    2.8875    0.0000 C   0  0  0  0  0  0  0  0  0  0  0  0
   -1.4289    2.4750    0.0000 O   0  0  0  0  0  0  0  0  0  0  0  0
   -0.7145    2.8875    0.0000 C   0  0  0  0  0  0  0  0  0  0  0  0
   -0.7145    3.7125    0.0000 O   0  0  0  0  0  0  0  0  0  0  0  0
    0.0000    2.4750    0.0000 C   0  0  0  0  0  0  0  0  0  0  0  0
    0.7145    2.8875    0.0000 C   0  0  0  0  0  0  0  0  0  0  0  0
    1.4289    2.4750    0.0000 C   0  0  0  0  0  0  0  0  0  0  0  0
    1.4289    1.6500    0.0000 C   0  0  0  0  0  0  0  0  0  0  0  0
    2.1434    1.2375    0.0000 O   0  0  0  0  0  0  0  0  0  0  0  0
    2.8579    1.6500    0.0000 C   0  0  0  0  0  0  0  0  0  0  0  0
    2.8579    2.4750    0.0000 O   0  0  0  0  0  0  0  0  0  0  0  0
    3.5724    1.2375    0.0000 C   0  0  0  0  0  0  0  0  0  0  0  0
    4.2868    1.6500    0.0000 C   0  0  0  0  0  0  0  0  0  0  0  0
    5.0013    1.2375    0.0000 C   0  0  0  0  0  0  0  0  0  0  0  0
    5.7158    1.6500    0.0000 C   0  0  0  0  0  0  0  0  0  0  0  0
    6.4302    1.2375    0.0000 C   0  0  0  0  0  0  0  0  0  0  0  0
    7.1447    1.6500    0.0000 N   0  0  0  0  0  0  0  0  0  0  0  0
    7.8592    1.2375    0.0000 C   0  0  0  0  0  0  0  0  0  0  0  0
    8.5737    1.6500    0.0000 N   0  0  0  0  0  0  0  0  0  0  0  0
    7.8592    0.4125    0.0000 N   0  0  0  0  0  0  0  0  0  0  0  0
    0.7145    1.2375    0.0000 C   0  0  0  0  0  0  0  0  0  0  0  0
   -0.0000    1.6500    0.0000 C   0  0  0  0  0  0  0  0  0  0  0  0
  1  2  1  0  0  0  0
  2  3  1  0  0  0  0
  3  4  1  0  0  0  0
  4  5  2  0  0  0  0
  4  6  1  0  0  0  0
  6  7  4  0  0  0  0
  7  8  4  0  0  0  0
  8  9  4  0  0  0  0
  9 10  1  0  0  0  0
 10 11  1  0  0  0  0
 11 12  2  0  0  0  0
 11 13  1  0  0  0  0
 13 14  1  0  0  0  0
 14 15  1  0  0  0  0
 15 16  1  0  0  0  0
 16 17  1  0  0  0  0
 17 18  1  0  0  0  0
 18 19  1  0  0  0  0
 19 20  2  0  0  0  0
 19 21  1  0  0  0  0
  9 22  4  0  0  0  0
 22 23  4  0  0  0  0
  6 23  4  0  0  0  0
M  END

> <ChembankId>
2080

> <SMILES>
CCOC(=O)c1ccc(OC(=O)CCCCCNC(=N)N)cc1

> <InChI>
1/C16H23N3O4/c1-2-22-15(21)12-7-9-13(10-8-12)23-14(20)6-4-3-5-11-19-16(17)18/h7-10H,2-6,11H2,1H3,(H4,17,18,19)

$$$$
3188148
  Marvin  11101114192D          

 25 29  0  0  0  0            999 V2000
   -2.6830   -3.1290    0.0000 C   0  0  0  0  0  0  0  0  0  0  0  0
   -1.8985   -2.8739    0.0000 N   0  0  0  0  0  0  0  0  0  0  0  0
   -1.3453   -2.4247    0.0000 C   0  0  0  0  0  0  0  0  0  0  0  0
   -0.7253   -2.8942    0.0000 C   0  0  0  0  0  0  0  0  0  0  0  0
   -0.4952   -3.5826    0.0000 C   0  0  0  0  0  0  0  0  0  0  0  0
   -1.0746   -2.9178    0.0000 C   0  0  0  0  0  0  0  0  0  0  0  0
   -0.8593   -1.9703    0.0000 C   0  0  0  0  0  0  0  0  0  0  0  0
   -0.3269   -1.5619    0.0000 C   0  0  0  0  0  0  0  0  0  0  0  0
   -1.1546   -1.5155    0.0000 C   0  0  0  0  0  0  0  0  0  0  0  0
    0.4614   -1.3187    0.0000 O   0  0  0  0  0  0  0  0  0  0  0  0
    0.6450   -0.5144    0.0000 C   0  0  0  0  0  0  0  0  0  0  0  0
    0.0000    0.0000    0.0000 C   0  0  0  0  0  0  0  0  0  0  0  0
   -0.7145   -0.4125    0.0000 C   0  0  0  0  0  0  0  0  0  0  0  0
   -1.4289    0.0000    0.0000 C   0  0  0  0  0  0  0  0  0  0  0  0
   -1.4289    0.8250    0.0000 C   0  0  0  0  0  0  0  0  0  0  0  0
   -0.7145    1.2375    0.0000 C   0  0  0  0  0  0  0  0  0  0  0  0
    0.0000    0.8250    0.0000 C   0  0  0  0  0  0  0  0  0  0  0  0
    0.6450    1.3394    0.0000 C   0  0  0  0  0  0  0  0  0  0  0  0
    1.4493    1.1558    0.0000 C   0  0  0  0  0  0  0  0  0  0  0  0
    1.8073    0.4125    0.0000 C   0  0  0  0  0  0  0  0  0  0  0  0
    2.6300    0.4742    0.0000 C   0  0  0  0  0  0  0  0  0  0  0  0
    3.0947   -0.2075    0.0000 C   0  0  0  0  0  0  0  0  0  0  0  0
    2.7368   -0.9508    0.0000 C   0  0  0  0  0  0  0  0  0  0  0  0
    1.9141   -1.0124    0.0000 C   0  0  0  0  0  0  0  0  0  0  0  0
    1.4493   -0.3308    0.0000 C   0  0  0  0  0  0  0  0  0  0  0  0
  1  2  1  0  0  0  0
  2  3  1  0  0  0  0
  3  4  1  0  0  0  0
  4  5  1  0  0  0  0
  5  6  1  0  0  0  0
  2  6  1  0  0  0  0
  6  7  1  0  0  0  0
  7  8  1  0  0  0  0
  8  9  1  0  0  0  0
  3  9  1  0  0  0  0
  8 10  1  0  0  0  0
 10 11  1  0  0  0  0
 11 12  1  0  0  0  0
 12 13  4  0  0  0  0
 13 14  4  0  0  0  0
 14 15  4  0  0  0  0
 15 16  4  0  0  0  0
 16 17  4  0  0  0  0
 12 17  4  0  0  0  0
 17 18  1  0  0  0  0
 18 19  1  0  0  0  0
 19 20  1  0  0  0  0
 20 21  4  0  0  0  0
 21 22  4  0  0  0  0
 22 23  4  0  0  0  0
 23 24  4  0  0  0  0
 24 25  4  0  0  0  0
 11 25  1  0  0  0  0
 20 25  4  0  0  0  0
M  END

> <ChembankId>
3188148

> <SMILES>
CN1C2CCC1CC(C2)OC3c4ccccc4CCc5ccccc35

> <InChI>
1/C23H27NO/c1-24-18-12-13-19(24)15-20(14-18)25-23-21-8-4-2-6-16(21)10-11-17-7-3-5-9-22(17)23/h2-9,18-20,23H,10-15H2,1H3/t18-,19+,20-

$$$$
3188150
  Marvin  11101114192D          

 27 30  0  0  1  0            999 V2000
    0.9122   -2.1492    0.0000 C   0  0  0  0  0  0  0  0  0  0  0  0
    1.7243   -2.0040    0.0000 C   0  0  0  0  0  0  0  0  0  0  0  0
    2.2561   -2.6347    0.0000 C   0  0  0  0  0  0  0  0  0  0  0  0
    1.9758   -3.4106    0.0000 O   0  0  0  0  0  0  0  0  0  0  0  0
    3.0683   -2.4895    0.0000 C   0  0  1  0  0  0  0  0  0  0  0  0
    3.1278   -3.3123    0.0000 C   0  0  0  0  0  0  0  0  0  0  0  0
    2.8390   -1.6970    0.0000 C   0  0  2  0  0  0  0  0  0  0  0  0
    2.0630   -1.4167    0.0000 C   0  0  0  0  0  0  0  0  0  0  0  0
    3.5218   -1.2340    0.0000 C   0  0  0  0  0  0  0  0  0  0  0  0
    4.1731   -1.7404    0.0000 C   0  0  1  0  0  0  0  0  0  0  0  0
    4.9853   -1.5952    0.0000 C   0  0  2  0  0  0  0  0  0  0  0  0
    5.2655   -0.8192    0.0000 C   0  0  0  0  0  0  0  0  0  0  0  0
    6.0777   -0.6740    0.0000 C   0  0  0  0  0  0  0  0  0  0  0  0
    6.6095   -1.3047    0.0000 C   0  0  0  0  0  0  0  0  0  0  0  0
    7.4216   -1.1595    0.0000 C   0  0  0  0  0  0  0  0  0  0  0  0
    7.9534   -1.7902    0.0000 C   0  0  0  0  0  0  0  0  0  0  0  0
    8.7655   -1.6450    0.0000 O   0  0  0  0  0  0  0  0  0  0  0  0
    7.6731   -2.5662    0.0000 C   0  0  0  0  0  0  0  0  0  0  0  0
    6.8610   -2.7114    0.0000 C   0  0  0  0  0  0  0  0  0  0  0  0
    6.3292   -2.0807    0.0000 C   0  0  1  0  0  0  0  0  0  0  0  0
    6.0489   -2.8566    0.0000 C   0  0  0  0  0  0  0  0  0  0  0  0
    5.5171   -2.2259    0.0000 C   0  0  0  0  0  0  0  0  0  0  0  0
    5.2368   -3.0018    0.0000 C   0  0  1  0  0  0  0  0  0  0  0  0
    5.7686   -3.6325    0.0000 O   0  0  0  0  0  0  0  0  0  0  0  0
    4.4247   -3.1470    0.0000 C   0  0  0  0  0  0  0  0  0  0  0  0
    3.8928   -2.5163    0.0000 C   0  0  2  0  0  0  0  0  0  0  0  0
    3.5330   -3.2587    0.0000 C   0  0  0  0  0  0  0  0  0  0  0  0
  1  2  1  0  0  0  0
  2  3  1  0  0  0  0
  3  4  2  0  0  0  0
  5  3  1  1  0  0  0
  5  6  1  6  0  0  0
  5  7  1  0  0  0  0
  7  8  1  6  0  0  0
  7  9  1  0  0  0  0
 10  9  1  1  0  0  0
 10 11  1  0  0  0  0
 11 12  1  6  0  0  0
 12 13  1  0  0  0  0
 13 14  1  0  0  0  0
 14 15  2  0  0  0  0
 15 16  1  0  0  0  0
 16 17  2  0  0  0  0
 16 18  1  0  0  0  0
 18 19  2  0  0  0  0
 19 20  1  0  0  0  0
 14 20  1  0  0  0  0
 20 21  1  1  0  0  0
 20 22  1  0  0  0  0
 11 22  1  0  0  0  0
 22 23  1  0  0  0  0
 23 24  1  1  0  0  0
 23 25  1  0  0  0  0
 25 26  1  0  0  0  0
 10 26  1  0  0  0  0
  5 26  1  0  0  0  0
 26 27  1  1  0  0  0
M  END

> <ChembankId>
3188150

> <SMILES>
CCC(=O)[C@@]1(C)[C@H](C)C[C@H]2[C@@H]3CCC4=CC(=O)C=C[C@]4(C)[C@H]3[C@@H](O)C[C@@]21C

> <InChI>
1/C24H34O3/c1-6-20(27)24(5)14(2)11-18-17-8-7-15-12-16(25)9-10-22(15,3)21(17)19(26)13-23(18,24)4/h9-10,12,14,17-19,21,26H,6-8,11,13H2,1-5H3

$$$$
1698
  Marvin  11101114192D          

 22 24  0  0  0  0            999 V2000
    2.9646    1.5884    0.0000 N   0  0  0  0  0  0  0  0  0  0  0  0
    2.2501    1.1759    0.0000 C   0  0  0  0  0  0  0  0  0  0  0  0
    1.5356    0.7634    0.0000 C   0  0  0  0  0  0  0  0  0  0  0  0
    1.5356   -0.0616    0.0000 C   0  0  0  0  0  0  0  0  0  0  0  0
    0.8212   -0.4741    0.0000 C   0  0  0  0  0  0  0  0  0  0  0  0
    0.1067   -0.0616    0.0000 C   0  0  0  0  0  0  0  0  0  0  0  0
    0.1067    0.7634    0.0000 C   0  0  0  0  0  0  0  0  0  0  0  0
    0.8212    1.1759    0.0000 C   0  0  0  0  0  0  0  0  0  0  0  0
   -0.6078   -0.4741    0.0000 C   0  0  0  0  0  0  0  0  0  0  0  0
   -1.3222   -0.0616    0.0000 C   0  0  0  0  0  0  0  0  0  0  0  0
   -2.0367   -0.4741    0.0000 C   0  0  0  0  0  0  0  0  0  0  0  0
   -2.7512   -0.0616    0.0000 C   0  0  0  0  0  0  0  0  0  0  0  0
   -2.7512    0.7634    0.0000 C   0  0  0  0  0  0  0  0  0  0  0  0
   -3.4656    1.1759    0.0000 C   0  0  0  0  0  0  0  0  0  0  0  0
   -4.1801    1.5884    0.0000 N   0  0  0  0  0  0  0  0  0  0  0  0
   -2.0367    1.1759    0.0000 C   0  0  0  0  0  0  0  0  0  0  0  0
   -1.3222    0.7634    0.0000 C   0  0  0  0  0  0  0  0  0  0  0  0
   -0.6078   -1.2991    0.0000 N   0  0  0  0  0  0  0  0  0  0  0  0
    0.0597   -1.7840    0.0000 C   0  0  0  0  0  0  0  0  0  0  0  0
   -0.1953   -2.5687    0.0000 N   0  0  0  0  0  0  0  0  0  0  0  0
   -1.0203   -2.5687    0.0000 C   0  0  0  0  0  0  0  0  0  0  0  0
   -1.2752   -1.7840    0.0000 N   0  0  0  0  0  0  0  0  0  0  0  0
  1  2  3  0  0  0  0
  2  3  1  0  0  0  0
  3  4  4  0  0  0  0
  4  5  4  0  0  0  0
  5  6  4  0  0  0  0
  6  7  4  0  0  0  0
  7  8  4  0  0  0  0
  3  8  4  0  0  0  0
  6  9  1  0  0  0  0
  9 10  1  0  0  0  0
 10 11  4  0  0  0  0
 11 12  4  0  0  0  0
 12 13  4  0  0  0  0
 13 14  1  0  0  0  0
 14 15  3  0  0  0  0
 13 16  4  0  0  0  0
 16 17  4  0  0  0  0
 10 17  4  0  0  0  0
  9 18  1  0  0  0  0
 18 19  4  0  0  0  0
 19 20  4  0  0  0  0
 20 21  4  0  0  0  0
 21 22  4  0  0  0  0
 18 22  4  0  0  0  0
M  END

> <ChembankId>
1698

> <SMILES>
N#Cc1ccc(cc1)C(c2ccc(C#N)cc2)n3cncn3

> <InChI>
1/C17H11N5/c18-9-13-1-5-15(6-2-13)17(22-12-20-11-21-22)16-7-3-14(10-19)4-8-16/h1-8,11-12,17H

$$$$
4425
  Marvin  11101114192D          

 20 21  0  0  0  0            999 V2000
   -0.7145   -3.7125    0.0000 C   0  0  0  0  0  0  0  0  0  0  0  0
   -0.7145   -2.8875    0.0000 C   0  0  0  0  0  0  0  0  0  0  0  0
   -1.4289   -2.4750    0.0000 C   0  0  0  0  0  0  0  0  0  0  0  0
    0.0000   -2.4750    0.0000 N   0  0  0  0  0  0  0  0  0  0  0  0
    0.0000   -1.6500    0.0000 C   0  0  0  0  0  0  0  0  0  0  0  0
    0.7145   -1.2375    0.0000 C   0  0  0  0  0  0  0  0  0  0  0  0
    0.7145   -0.4125    0.0000 C   0  0  0  0  0  0  0  0  0  0  0  0
    1.4289    0.0000    0.0000 C   0  0  0  0  0  0  0  0  0  0  0  0
    2.1434   -0.4125    0.0000 C   0  0  0  0  0  0  0  0  0  0  0  0
    2.8579    0.0000    0.0000 C   0  0  0  0  0  0  0  0  0  0  0  0
    3.5724   -0.4125    0.0000 C   0  0  0  0  0  0  0  0  0  0  0  0
    4.2868   -0.0000    0.0000 C   0  0  0  0  0  0  0  0  0  0  0  0
    4.2868    0.8250    0.0000 O   0  0  0  0  0  0  0  0  0  0  0  0
    3.5724   -1.2375    0.0000 C   0  0  0  0  0  0  0  0  0  0  0  0
    2.8579   -1.6500    0.0000 C   0  0  0  0  0  0  0  0  0  0  0  0
    2.1434   -1.2375    0.0000 C   0  0  0  0  0  0  0  0  0  0  0  0
    1.4289   -1.6500    0.0000 N   0  0  0  0  0  0  0  0  0  0  0  0
    4.2868   -1.6500    0.0000 N   0  3  0  0  0  0  0  0  0  0  0  0
    4.2868   -2.4750    0.0000 O   0  0  0  0  0  0  0  0  0  0  0  0
    5.0013   -1.2375    0.0000 O   0  5  0  0  0  0  0  0  0  0  0  0
  1  2  1  0  0  0  0
  2  3  1  0  0  0  0
  2  4  1  0  0  0  0
  4  5  1  0  0  0  0
  5  6  1  0  0  0  0
  6  7  1  0  0  0  0
  7  8  1  0  0  0  0
  8  9  1  0  0  0  0
  9 10  4  0  0  0  0
 10 11  4  0  0  0  0
 11 12  1  0  0  0  0
 12 13  1  0  0  0  0
 11 14  4  0  0  0  0
 14 15  4  0  0  0  0
 15 16  4  0  0  0  0
  9 16  4  0  0  0  0
 16 17  1  0  0  0  0
  6 17  1  0  0  0  0
 14 18  1  0  0  0  0
 18 19  2  0  0  0  0
 18 20  1  0  0  0  0
M  CHG  2  18   1  20  -1
M  END

> <ChembankId>
4425

> <SMILES>
CC(C)NCC1CCc2cc(CO)c(cc2N1)[N+](=O)[O-]

> <InChI>
1/C14H21N3O3/c1-9(2)15-7-12-4-3-10-5-11(8-18)14(17(19)20)6-13(10)16-12/h5-6,9,12,15-16,18H,3-4,7-8H2,1-2H3/t12-/m1/s1

$$$$
3188152
  Marvin  11101114192D          

 14 14  0  0  0  0            999 V2000
    2.8579    3.3000    0.0000 C   0  0  0  0  0  0  0  0  0  0  0  0
    2.8579    2.4750    0.0000 C   0  0  0  0  0  0  0  0  0  0  0  0
    3.5724    2.0625    0.0000 N   0  0  0  0  0  0  0  0  0  0  0  0
    2.1434    2.0625    0.0000 C   0  0  0  0  0  0  0  0  0  0  0  0
    1.4289    2.4750    0.0000 O   0  0  0  0  0  0  0  0  0  0  0  0
    2.1434    1.2375    0.0000 N   0  0  0  0  0  0  0  0  0  0  0  0
    1.4289    0.8250    0.0000 C   0  0  0  0  0  0  0  0  0  0  0  0
    1.4289   -0.0000    0.0000 C   0  0  0  0  0  0  0  0  0  0  0  0
    2.1434   -0.4125    0.0000 C   0  0  0  0  0  0  0  0  0  0  0  0
    0.7145   -0.4125    0.0000 C   0  0  0  0  0  0  0  0  0  0  0  0
    0.0000    0.0000    0.0000 C   0  0  0  0  0  0  0  0  0  0  0  0
    0.0000    0.8250    0.0000 C   0  0  0  0  0  0  0  0  0  0  0  0
    0.7145    1.2375    0.0000 C   0  0  0  0  0  0  0  0  0  0  0  0
    0.7145    2.0625    0.0000 C   0  0  0  0  0  0  0  0  0  0  0  0
  1  2  1  0  0  0  0
  2  3  1  0  0  0  0
  2  4  1  0  0  0  0
  4  5  2  0  0  0  0
  4  6  1  0  0  0  0
  6  7  1  0  0  0  0
  7  8  4  0  0  0  0
  8  9  1  0  0  0  0
  8 10  4  0  0  0  0
 10 11  4  0  0  0  0
 11 12  4  0  0  0  0
 12 13  4  0  0  0  0
  7 13  4  0  0  0  0
 13 14  1  0  0  0  0
M  END

> <ChembankId>
3188152

> <SMILES>
CC(N)C(=O)Nc1c(C)cccc1C

> <InChI>
1/C11H16N2O/c1-7-5-4-6-8(2)10(7)13-11(14)9(3)12/h4-6,9H,12H2,1-3H3,(H,13,14)

$$$$
3188153
  Marvin  11101114192D          

 42 45  0  0  1  0            999 V2000
   -3.1741    0.9018    0.0000 C   0  0  0  0  0  0  0  0  0  0  0  0
   -2.7247    0.2099    0.0000 C   0  0  0  0  0  0  0  0  0  0  0  0
   -3.4598   -0.1646    0.0000 C   0  0  0  0  0  0  0  0  0  0  0  0
   -2.0836    0.7291    0.0000 S   0  0  0  0  0  0  0  0  0  0  0  0
   -1.3917    0.2798    0.0000 C   0  0  2  0  0  0  0  0  0  0  0  0
   -0.5948    0.0663    0.0000 C   0  0  2  0  0  0  0  0  0  0  0  0
    0.1197    0.4788    0.0000 N   0  0  0  0  0  0  0  0  0  0  0  0
    0.8341    0.0663    0.0000 C   0  0  0  0  0  0  0  0  0  0  0  0
    0.8341   -0.7587    0.0000 O   0  0  0  0  0  0  0  0  0  0  0  0
    1.5486    0.4788    0.0000 C   0  0  0  0  0  0  0  0  0  0  0  0
    2.2631    0.0663    0.0000 O   0  0  0  0  0  0  0  0  0  0  0  0
    2.9776    0.4788    0.0000 C   0  0  0  0  0  0  0  0  0  0  0  0
    2.9776    1.3038    0.0000 C   0  0  0  0  0  0  0  0  0  0  0  0
    3.6920    1.7163    0.0000 C   0  0  0  0  0  0  0  0  0  0  0  0
    4.4065    1.3038    0.0000 C   0  0  0  0  0  0  0  0  0  0  0  0
    4.4065    0.4788    0.0000 C   0  0  0  0  0  0  0  0  0  0  0  0
    3.6920    0.0663    0.0000 C   0  0  0  0  0  0  0  0  0  0  0  0
   -0.8083   -0.7306    0.0000 C   0  0  0  0  0  0  0  0  0  0  0  0
   -0.3958   -1.4451    0.0000 O   0  0  0  0  0  0  0  0  0  0  0  0
   -1.6052   -0.5171    0.0000 N   0  0  0  0  0  0  0  0  0  0  0  0
   -2.4291   -0.5603    0.0000 C   0  0  0  0  0  0  0  0  0  0  0  0
   -2.8784   -1.2522    0.0000 C   0  0  0  0  0  0  0  0  0  0  0  0
   -2.5039   -1.9872    0.0000 O   0  0  0  0  0  0  0  0  0  0  0  0
   -3.7023   -1.2090    0.0000 O   0  0  0  0  0  0  0  0  0  0  0  0
   10.8147    0.2062    0.0000 C   0  0  0  0  0  0  0  0  0  0  0  0
   10.1003   -0.2062    0.0000 C   0  0  0  0  0  0  0  0  0  0  0  0
    9.3858    0.2062    0.0000 N   0  0  0  0  0  0  0  0  0  0  0  0
    8.6713   -0.2062    0.0000 C   0  0  0  0  0  0  0  0  0  0  0  0
    7.9569    0.2062    0.0000 C   0  0  0  0  0  0  0  0  0  0  0  0
    7.2424   -0.2063    0.0000 C   0  0  0  0  0  0  0  0  0  0  0  0
    6.5279    0.2062    0.0000 C   0  0  0  0  0  0  0  0  0  0  0  0
    6.5279    1.0312    0.0000 C   0  0  0  0  0  0  0  0  0  0  0  0
    7.2424    1.4438    0.0000 C   0  0  0  0  0  0  0  0  0  0  0  0
    7.9569    1.0312    0.0000 C   0  0  0  0  0  0  0  0  0  0  0  0
   11.5292   -0.2062    0.0000 N   0  0  0  0  0  0  0  0  0  0  0  0
   12.2437    0.2063    0.0000 C   0  0  0  0  0  0  0  0  0  0  0  0
   12.9582   -0.2062    0.0000 C   0  0  0  0  0  0  0  0  0  0  0  0
   13.6726    0.2063    0.0000 C   0  0  0  0  0  0  0  0  0  0  0  0
   14.3871   -0.2062    0.0000 C   0  0  0  0  0  0  0  0  0  0  0  0
   14.3871   -1.0312    0.0000 C   0  0  0  0  0  0  0  0  0  0  0  0
   13.6726   -1.4437    0.0000 C   0  0  0  0  0  0  0  0  0  0  0  0
   12.9582   -1.0312    0.0000 C   0  0  0  0  0  0  0  0  0  0  0  0
  1  2  1  0  0  0  0
  2  3  1  0  0  0  0
  2  4  1  0  0  0  0
  4  5  1  0  0  0  0
  5  6  1  0  0  0  0
  6  7  1  6  0  0  0
  7  8  1  0  0  0  0
  8  9  2  0  0  0  0
  8 10  1  0  0  0  0
 10 11  1  0  0  0  0
 11 12  1  0  0  0  0
 12 13  4  0  0  0  0
 13 14  4  0  0  0  0
 14 15  4  0  0  0  0
 15 16  4  0  0  0  0
 16 17  4  0  0  0  0
 12 17  4  0  0  0  0
  6 18  1  0  0  0  0
 18 19  2  0  0  0  0
 18 20  1  0  0  0  0
  5 20  1  6  0  0  0
 20 21  1  0  0  0  0
  2 21  1  0  0  0  0
 21 22  1  0  0  0  0
 22 23  2  0  0  0  0
 22 24  1  0  0  0  0
 25 26  1  0  0  0  0
 26 27  1  0  0  0  0
 27 28  1  0  0  0  0
 28 29  1  0  0  0  0
 29 30  4  0  0  0  0
 30 31  4  0  0  0  0
 31 32  4  0  0  0  0
 32 33  4  0  0  0  0
 33 34  4  0  0  0  0
 29 34  4  0  0  0  0
 25 35  1  0  0  0  0
 35 36  1  0  0  0  0
 36 37  1  0  0  0  0
 37 38  4  0  0  0  0
 38 39  4  0  0  0  0
 39 40  4  0  0  0  0
 40 41  4  0  0  0  0
 41 42  4  0  0  0  0
 37 42  4  0  0  0  0
M  END

> <ChembankId>
3188153

> <SMILES>
CC1(C)S[C@@H]2[C@H](NC(=O)COc3ccccc3)C(=O)N2C1C(=O)O.C(CNCc1ccccc1)NCc2ccccc2

> <InChI>
1/C16H18N2O5S.C16H20N2/c1-16(2)12(15(21)22)18-13(20)11(14(18)24-16)17-10(19)8-23-9-6-4-3-5-7-9;1-3-7-15(8-4-1)13-17-11-12-18-14-16-9-5-2-6-10-16/h3-7,11-12,14H,8H2,1-2H3,(H,17,19)(H,21,22);1-10,17-18H,11-14H2

$$$$
1511611
  Marvin  11101114192D          

 20 22  0  0  0  0            999 V2000
    0.0768   -2.3215    0.0000 C   0  0  0  0  0  0  0  0  0  0  0  0
    0.8838   -2.1500    0.0000 C   0  0  0  0  0  0  0  0  0  0  0  0
    1.1387   -1.3654    0.0000 C   0  0  0  0  0  0  0  0  0  0  0  0
    0.6538   -0.6979    0.0000 C   0  0  0  0  0  0  0  0  0  0  0  0
   -0.1712   -0.6979    0.0000 C   0  0  0  0  0  0  0  0  0  0  0  0
    1.1387   -0.0305    0.0000 N   0  0  0  0  0  0  0  0  0  0  0  0
    1.9233   -0.2854    0.0000 C   0  0  0  0  0  0  0  0  0  0  0  0
    2.6378    0.1271    0.0000 C   0  0  0  0  0  0  0  0  0  0  0  0
    3.3523   -0.2854    0.0000 C   0  0  0  0  0  0  0  0  0  0  0  0
    3.3523   -1.1104    0.0000 C   0  0  0  0  0  0  0  0  0  0  0  0
    4.0668   -1.5229    0.0000 C   0  0  0  0  0  0  0  0  0  0  0  0
    4.0668   -2.3479    0.0000 N   0  0  0  0  0  0  0  0  0  0  0  0
    4.7812   -2.7604    0.0000 C   0  0  0  0  0  0  0  0  0  0  0  0
    4.7812   -3.5854    0.0000 C   0  0  0  0  0  0  0  0  0  0  0  0
    4.0668   -3.9979    0.0000 O   0  0  0  0  0  0  0  0  0  0  0  0
    3.3523   -3.5854    0.0000 C   0  0  0  0  0  0  0  0  0  0  0  0
    3.3523   -2.7604    0.0000 C   0  0  0  0  0  0  0  0  0  0  0  0
    2.6378   -1.5229    0.0000 C   0  0  0  0  0  0  0  0  0  0  0  0
    2.6378   -2.3479    0.0000 O   0  0  0  0  0  0  0  0  0  0  0  0
    1.9233   -1.1104    0.0000 C   0  0  0  0  0  0  0  0  0  0  0  0
  1  2  1  0  0  0  0
  2  3  1  0  0  0  0
  3  4  4  0  0  0  0
  4  5  1  0  0  0  0
  4  6  4  0  0  0  0
  6  7  4  0  0  0  0
  7  8  1  0  0  0  0
  8  9  1  0  0  0  0
  9 10  1  0  0  0  0
 10 11  1  0  0  0  0
 11 12  1  0  0  0  0
 12 13  1  0  0  0  0
 13 14  1  0  0  0  0
 14 15  1  0  0  0  0
 15 16  1  0  0  0  0
 16 17  1  0  0  0  0
 12 17  1  0  0  0  0
 10 18  1  0  0  0  0
 18 19  2  0  0  0  0
 18 20  1  0  0  0  0
  3 20  4  0  0  0  0
  7 20  4  0  0  0  0
M  STY  1   1 DAT
M  SAL   1  1   6
M  SDT   1 MRV_IMPLICIT_H                                        
M  SDD   1     0.0000    0.0000    DR    ALL  0       0  
M  SED   1 IMPL_H1
M  END

> <ChembankId>
1511611

> <SMILES>
CCc1c(C)[nH]c2CCC(CN3CCOCC3)C(=O)c12

> <InChI>
1/C16H24N2O2/c1-3-13-11(2)17-14-5-4-12(16(19)15(13)14)10-18-6-8-20-9-7-18/h12,17H,3-10H2,1-2H3

$$$$
3069811
  Marvin  11101114192D          

 31 34  0  0  1  0            999 V2000
    0.5942   -3.3262    0.0000 C   0  0  0  0  0  0  0  0  0  0  0  0
   -0.1203   -3.7387    0.0000 C   0  0  2  0  0  0  0  0  0  0  0  0
   -0.1203   -4.5637    0.0000 C   0  0  0  0  0  0  0  0  0  0  0  0
   -0.8348   -4.9762    0.0000 N   0  0  0  0  0  0  0  0  0  0  0  0
   -1.5493   -4.5637    0.0000 C   0  0  0  0  0  0  0  0  0  0  0  0
   -1.5493   -3.7387    0.0000 C   0  0  0  0  0  0  0  0  0  0  0  0
   -0.8348   -3.3262    0.0000 C   0  0  1  0  0  0  0  0  0  0  0  0
   -0.4475   -2.5978    0.0000 C   0  0  0  0  0  0  0  0  0  0  0  0
   -0.3899   -1.7748    0.0000 O   0  0  0  0  0  0  0  0  0  0  0  0
    0.3770   -2.5690    0.0000 O   0  0  0  0  0  0  0  0  0  0  0  0
   -1.2221   -2.5978    0.0000 C   0  0  0  0  0  0  0  0  0  0  0  0
   -2.0466   -2.5690    0.0000 C   0  0  0  0  0  0  0  0  0  0  0  0
   -2.4339   -1.8406    0.0000 C   0  0  0  0  0  0  0  0  0  0  0  0
   -1.9967   -1.1409    0.0000 C   0  0  0  0  0  0  0  0  0  0  0  0
   -1.1722   -1.1697    0.0000 C   0  0  0  0  0  0  0  0  0  0  0  0
   -0.7849   -1.8982    0.0000 C   0  0  0  0  0  0  0  0  0  0  0  0
   -0.8348   -5.8012    0.0000 C   0  0  1  0  0  0  0  0  0  0  0  0
   -1.5493   -6.2137    0.0000 C   0  0  0  0  0  0  0  0  0  0  0  0
   -1.5493   -7.0387    0.0000 C   0  0  0  0  0  0  0  0  0  0  0  0
   -0.8348   -7.4512    0.0000 C   0  0  2  0  0  0  0  0  0  0  0  0
   -0.1203   -7.0387    0.0000 C   0  0  0  0  0  0  0  0  0  0  0  0
   -0.1203   -6.2137    0.0000 C   0  0  0  0  0  0  0  0  0  0  0  0
   -1.2221   -8.1797    0.0000 C   0  0  0  0  0  0  0  0  0  0  0  0
   -1.6094   -8.9081    0.0000 N   0  0  0  0  0  0  0  0  0  0  0  0
   -0.4475   -8.1797    0.0000 C   0  0  0  0  0  0  0  0  0  0  0  0
    0.3770   -8.2085    0.0000 C   0  0  0  0  0  0  0  0  0  0  0  0
    0.7643   -8.9369    0.0000 C   0  0  0  0  0  0  0  0  0  0  0  0
    0.3272   -9.6365    0.0000 C   0  0  0  0  0  0  0  0  0  0  0  0
    0.7145  -10.3650    0.0000 F   0  0  0  0  0  0  0  0  0  0  0  0
   -0.4973   -9.6077    0.0000 C   0  0  0  0  0  0  0  0  0  0  0  0
   -0.8847   -8.8793    0.0000 C   0  0  0  0  0  0  0  0  0  0  0  0
  2  1  1  6  0  0  0
  2  3  1  0  0  0  0
  3  4  1  0  0  0  0
  4  5  1  0  0  0  0
  5  6  1  0  0  0  0
  6  7  1  0  0  0  0
  2  7  1  0  0  0  0
  7  8  1  1  0  0  0
  8  9  2  0  0  0  0
  8 10  1  0  0  0  0
  7 11  1  6  0  0  0
 11 12  4  0  0  0  0
 12 13  4  0  0  0  0
 13 14  4  0  0  0  0
 14 15  4  0  0  0  0
 15 16  4  0  0  0  0
 11 16  4  0  0  0  0
 17  4  1  6  0  0  0
 17 18  1  0  0  0  0
 18 19  1  0  0  0  0
 19 20  1  0  0  0  0
 20 21  1  0  0  0  0
 21 22  1  0  0  0  0
 17 22  1  0  0  0  0
 20 23  1  6  0  0  0
 23 24  3  0  0  0  0
 20 25  1  1  0  0  0
 25 26  4  0  0  0  0
 26 27  4  0  0  0  0
 27 28  4  0  0  0  0
 28 29  1  0  0  0  0
 28 30  4  0  0  0  0
 30 31  4  0  0  0  0
 25 31  4  0  0  0  0
M  END

> <ChembankId>
3069811

> <SMILES>
C[C@@H]1CN(CC[C@]1(C(=O)O)c2ccccc2)[C@H]3CC[C@](CC3)(C#N)c4ccc(F)cc4

> <InChI>
1/C26H29FN2O2/c1-19-17-29(16-15-26(19,24(30)31)21-5-3-2-4-6-21)23-11-13-25(18-28,14-12-23)20-7-9-22(27)10-8-20/h2-10,19,23H,11-17H2,1H3,(H,30,31)

$$$$
3188157
  Marvin  11101114192D          

 23 24  0  0  0  0            999 V2000
   -2.5014   -2.7305    0.0000 C   0  0  0  0  0  0  0  0  0  0  0  0
   -2.1277   -1.9949    0.0000 C   0  0  0  0  0  0  0  0  0  0  0  0
   -1.3039   -1.9508    0.0000 N   0  3  0  0  0  0  0  0  0  0  0  0
   -1.2597   -2.7746    0.0000 C   0  0  0  0  0  0  0  0  0  0  0  0
   -0.5242   -3.1483    0.0000 C   0  0  0  0  0  0  0  0  0  0  0  0
   -1.3480   -1.1270    0.0000 C   0  0  0  0  0  0  0  0  0  0  0  0
   -0.6567   -0.6768    0.0000 C   0  0  0  0  0  0  0  0  0  0  0  0
   -0.4801   -1.9066    0.0000 C   0  0  0  0  0  0  0  0  0  0  0  0
   -0.1064   -1.1711    0.0000 C   0  0  0  0  0  0  0  0  0  0  0  0
    0.7174   -1.1270    0.0000 C   0  0  0  0  0  0  0  0  0  0  0  0
    1.5412   -1.0828    0.0000 O   0  0  0  0  0  0  0  0  0  0  0  0
    0.7616   -1.9508    0.0000 C   0  0  0  0  0  0  0  0  0  0  0  0
    1.4971   -2.3245    0.0000 C   0  0  0  0  0  0  0  0  0  0  0  0
    1.5412   -3.1483    0.0000 C   0  0  0  0  0  0  0  0  0  0  0  0
    0.8499   -3.5984    0.0000 C   0  0  0  0  0  0  0  0  0  0  0  0
    0.1144   -3.2247    0.0000 C   0  0  0  0  0  0  0  0  0  0  0  0
    0.0702   -2.4009    0.0000 C   0  0  0  0  0  0  0  0  0  0  0  0
    0.6733   -0.3032    0.0000 C   0  0  0  0  0  0  0  0  0  0  0  0
   -0.0622    0.0705    0.0000 C   0  0  0  0  0  0  0  0  0  0  0  0
   -0.1064    0.8943    0.0000 C   0  0  0  0  0  0  0  0  0  0  0  0
    0.5850    1.3445    0.0000 C   0  0  0  0  0  0  0  0  0  0  0  0
    1.3205    0.9708    0.0000 C   0  0  0  0  0  0  0  0  0  0  0  0
    1.3647    0.1470    0.0000 C   0  0  0  0  0  0  0  0  0  0  0  0
  1  2  1  0  0  0  0
  2  3  1  0  0  0  0
  3  4  1  0  0  0  0
  4  5  1  0  0  0  0
  3  6  1  0  0  0  0
  6  7  1  0  0  0  0
  3  8  1  0  0  0  0
  8  9  1  0  0  0  0
  9 10  1  0  0  0  0
 10 11  1  0  0  0  0
 10 12  1  0  0  0  0
 12 13  1  0  0  0  0
 13 14  1  0  0  0  0
 14 15  1  0  0  0  0
 15 16  1  0  0  0  0
 16 17  1  0  0  0  0
 12 17  1  0  0  0  0
 10 18  1  0  0  0  0
 18 19  4  0  0  0  0
 19 20  4  0  0  0  0
 20 21  4  0  0  0  0
 21 22  4  0  0  0  0
 22 23  4  0  0  0  0
 18 23  4  0  0  0  0
M  CHG  1   3   1
M  END

> <ChembankId>
3188157

> <SMILES>
CC[N+](CC)(CC)CCC(O)(C1CCCCC1)c2ccccc2

> <InChI>
1/C21H36NO/c1-4-22(5-2,6-3)18-17-21(23,19-13-9-7-10-14-19)20-15-11-8-12-16-20/h7,9-10,13-14,20,23H,4-6,8,11-12,15-18H2,1-3H3/q+1

$$$$
3188159
  Marvin  11101114192D          

 33 35  0  0  1  0            999 V2000
   -0.4300   -4.2648    0.0000 C   0  0  0  0  0  0  0  0  0  0  0  0
    0.3776   -4.0958    0.0000 C   0  0  0  0  0  0  0  0  0  0  0  0
    0.6350   -3.3120    0.0000 O   0  0  0  0  0  0  0  0  0  0  0  0
    1.4425   -3.1431    0.0000 C   0  0  0  0  0  0  0  0  0  0  0  0
    1.6999   -2.3593    0.0000 C   0  0  0  0  0  0  0  0  0  0  0  0
    2.5074   -2.1903    0.0000 C   0  0  0  0  0  0  0  0  0  0  0  0
    2.7648   -1.4065    0.0000 C   0  0  0  0  0  0  0  0  0  0  0  0
    3.5724   -1.2375    0.0000 C   0  0  0  0  0  0  0  0  0  0  0  0
    4.1224   -1.8523    0.0000 O   0  0  0  0  0  0  0  0  0  0  0  0
    3.8298   -0.4537    0.0000 N   0  0  0  0  0  0  0  0  0  0  0  0
    4.6373   -0.2847    0.0000 C   0  0  1  0  0  0  0  0  0  0  0  0
    5.1874   -0.8996    0.0000 C   0  0  0  0  0  0  0  0  0  0  0  0
    5.9400   -1.2375    0.0000 C   0  0  0  0  0  0  0  0  0  0  0  0
    6.6059   -1.7245    0.0000 C   0  0  0  0  0  0  0  0  0  0  0  0
    6.0236   -2.0582    0.0000 C   0  0  0  0  0  0  0  0  0  0  0  0
    4.8947    0.4991    0.0000 C   0  0  0  0  0  0  0  0  0  0  0  0
    4.3446    1.1139    0.0000 C   0  0  0  0  0  0  0  0  0  0  0  0
    4.6020    1.8977    0.0000 C   0  0  0  0  0  0  0  0  0  0  0  0
    5.4096    2.0667    0.0000 C   0  0  0  0  0  0  0  0  0  0  0  0
    5.9596    1.4519    0.0000 C   0  0  0  0  0  0  0  0  0  0  0  0
    5.7022    0.6681    0.0000 C   0  0  0  0  0  0  0  0  0  0  0  0
    6.2523    0.0532    0.0000 N   0  0  0  0  0  0  0  0  0  0  0  0
    7.0598    0.2222    0.0000 C   0  0  0  0  0  0  0  0  0  0  0  0
    7.6099   -0.3926    0.0000 C   0  0  0  0  0  0  0  0  0  0  0  0
    7.3525   -1.1765    0.0000 C   0  0  0  0  0  0  0  0  0  0  0  0
    6.5450   -1.3454    0.0000 C   0  0  0  0  0  0  0  0  0  0  0  0
    5.9949   -0.7306    0.0000 C   0  0  0  0  0  0  0  0  0  0  0  0
    3.0575   -2.8051    0.0000 C   0  0  0  0  0  0  0  0  0  0  0  0
    2.8001   -3.5889    0.0000 C   0  0  0  0  0  0  0  0  0  0  0  0
    1.9926   -3.7579    0.0000 C   0  0  0  0  0  0  0  0  0  0  0  0
    1.7352   -4.5417    0.0000 C   0  0  0  0  0  0  0  0  0  0  0  0
    0.9276   -4.7107    0.0000 O   0  0  0  0  0  0  0  0  0  0  0  0
    2.2852   -5.1566    0.0000 O   0  0  0  0  0  0  0  0  0  0  0  0
  1  2  1  0  0  0  0
  2  3  1  0  0  0  0
  3  4  1  0  0  0  0
  4  5  4  0  0  0  0
  5  6  4  0  0  0  0
  6  7  1  0  0  0  0
  7  8  1  0  0  0  0
  8  9  2  0  0  0  0
  8 10  1  0  0  0  0
 11 10  1  6  0  0  0
 11 12  1  0  0  0  0
 12 13  1  0  0  0  0
 13 14  1  0  0  0  0
 13 15  1  0  0  0  0
 11 16  1  0  0  0  0
 16 17  4  0  0  0  0
 17 18  4  0  0  0  0
 18 19  4  0  0  0  0
 19 20  4  0  0  0  0
 20 21  4  0  0  0  0
 16 21  4  0  0  0  0
 21 22  1  0  0  0  0
 22 23  1  0  0  0  0
 23 24  1  0  0  0  0
 24 25  1  0  0  0  0
 25 26  1  0  0  0  0
 26 27  1  0  0  0  0
 22 27  1  0  0  0  0
  6 28  4  0  0  0  0
 28 29  4  0  0  0  0
 29 30  4  0  0  0  0
  4 30  4  0  0  0  0
 30 31  1  0  0  0  0
 31 32  2  0  0  0  0
 31 33  1  0  0  0  0
M  END

> <ChembankId>
3188159

> <SMILES>
CCOc1cc(CC(=O)N[C@@H](CC(C)C)c2ccccc2N3CCCCC3)ccc1C(=O)O

> <InChI>
1/C27H36N2O4/c1-4-33-25-17-20(12-13-22(25)27(31)32)18-26(30)28-23(16-19(2)3)21-10-6-7-11-24(21)29-14-8-5-9-15-29/h6-7,10-13,17,19,23H,4-5,8-9,14-16,18H2,1-3H3,(H,28,30)(H,31,32)

$$$$
3188160
  Marvin  11101114192D          

 29 32  0  0  0  0            999 V2000
    0.0000   -2.4750    0.0000 C   0  0  0  0  0  0  0  0  0  0  0  0
    0.7145   -2.8875    0.0000 C   0  0  0  0  0  0  0  0  0  0  0  0
    0.7145   -3.7125    0.0000 O   0  0  0  0  0  0  0  0  0  0  0  0
    1.4289   -2.4750    0.0000 C   0  0  0  0  0  0  0  0  0  0  0  0
    1.4289   -1.6500    0.0000 C   0  0  0  0  0  0  0  0  0  0  0  0
    2.1434   -1.2375    0.0000 C   0  0  0  0  0  0  0  0  0  0  0  0
    2.8579   -1.6500    0.0000 C   0  0  0  0  0  0  0  0  0  0  0  0
    3.5724   -1.2375    0.0000 S   0  0  0  0  0  0  0  0  0  0  0  0
    4.2868   -1.6500    0.0000 C   0  0  0  0  0  0  0  0  0  0  0  0
    5.0013   -1.2375    0.0000 C   0  0  0  0  0  0  0  0  0  0  0  0
    5.7158   -1.6500    0.0000 C   0  0  0  0  0  0  0  0  0  0  0  0
    5.7158   -2.4750    0.0000 C   0  0  0  0  0  0  0  0  0  0  0  0
    5.0013   -2.8875    0.0000 C   0  0  0  0  0  0  0  0  0  0  0  0
    4.2868   -2.4750    0.0000 C   0  0  0  0  0  0  0  0  0  0  0  0
    3.5724   -2.8875    0.0000 N   0  0  0  0  0  0  0  0  0  0  0  0
    3.5724   -3.7125    0.0000 C   0  0  0  0  0  0  0  0  0  0  0  0
    4.2868   -4.1250    0.0000 C   0  0  0  0  0  0  0  0  0  0  0  0
    5.0013   -3.7125    0.0000 C   0  0  0  0  0  0  0  0  0  0  0  0
    5.7158   -4.1250    0.0000 N   0  0  0  0  0  0  0  0  0  0  0  0
    6.4302   -3.7125    0.0000 C   0  0  0  0  0  0  0  0  0  0  0  0
    7.1447   -4.1250    0.0000 C   0  0  0  0  0  0  0  0  0  0  0  0
    7.1447   -4.9500    0.0000 C   0  0  0  0  0  0  0  0  0  0  0  0
    7.8592   -5.3625    0.0000 C   0  0  0  0  0  0  0  0  0  0  0  0
    7.8592   -6.1875    0.0000 C   0  0  0  0  0  0  0  0  0  0  0  0
    8.5737   -6.6000    0.0000 O   0  0  0  0  0  0  0  0  0  0  0  0
    6.4302   -5.3625    0.0000 C   0  0  0  0  0  0  0  0  0  0  0  0
    5.7158   -4.9500    0.0000 C   0  0  0  0  0  0  0  0  0  0  0  0
    2.8579   -2.4750    0.0000 C   0  0  0  0  0  0  0  0  0  0  0  0
    2.1434   -2.8875    0.0000 C   0  0  0  0  0  0  0  0  0  0  0  0
  1  2  1  0  0  0  0
  2  3  2  0  0  0  0
  2  4  1  0  0  0  0
  4  5  4  0  0  0  0
  5  6  4  0  0  0  0
  6  7  4  0  0  0  0
  7  8  1  0  0  0  0
  8  9  1  0  0  0  0
  9 10  4  0  0  0  0
 10 11  4  0  0  0  0
 11 12  4  0  0  0  0
 12 13  4  0  0  0  0
 13 14  4  0  0  0  0
  9 14  4  0  0  0  0
 14 15  1  0  0  0  0
 15 16  1  0  0  0  0
 16 17  1  0  0  0  0
 17 18  1  0  0  0  0
 18 19  1  0  0  0  0
 19 20  1  0  0  0  0
 20 21  1  0  0  0  0
 21 22  1  0  0  0  0
 22 23  1  0  0  0  0
 23 24  1  0  0  0  0
 24 25  1  0  0  0  0
 22 26  1  0  0  0  0
 26 27  1  0  0  0  0
 19 27  1  0  0  0  0
 15 28  1  0  0  0  0
  7 28  4  0  0  0  0
 28 29  4  0  0  0  0
  4 29  4  0  0  0  0
M  END

> <ChembankId>
3188160

> <SMILES>
CC(=O)c1ccc2Sc3ccccc3N(CCCN4CCC(CCO)CC4)c2c1

> <InChI>
1/C24H30N2O2S/c1-18(28)20-7-8-24-22(17-20)26(21-5-2-3-6-23(21)29-24)13-4-12-25-14-9-19(10-15-25)11-16-27/h2-3,5-8,17,19,27H,4,9-16H2,1H3

$$$$
3069814
  Marvin  11101114192D          

 18 19  0  0  0  0            999 V2000
    0.0000   -2.4750    0.0000 C   0  0  0  0  0  0  0  0  0  0  0  0
    0.0000   -1.6500    0.0000 C   0  0  0  0  0  0  0  0  0  0  0  0
    0.7145   -1.2375    0.0000 C   0  0  0  0  0  0  0  0  0  0  0  0
    0.7145   -0.4125    0.0000 N   0  0  0  0  0  0  0  0  0  0  0  0
    1.4289    0.0000    0.0000 C   0  0  0  0  0  0  0  0  0  0  0  0
    1.4289    0.8250    0.0000 O   0  0  0  0  0  0  0  0  0  0  0  0
    2.1434   -0.4125    0.0000 C   0  0  0  0  0  0  0  0  0  0  0  0
    2.8579    0.0000    0.0000 C   0  0  0  0  0  0  0  0  0  0  0  0
    3.5724   -0.4125    0.0000 C   0  0  0  0  0  0  0  0  0  0  0  0
    3.5724   -1.2375    0.0000 C   0  0  0  0  0  0  0  0  0  0  0  0
    4.2868   -1.6500    0.0000 Cl  0  0  0  0  0  0  0  0  0  0  0  0
    2.8579   -1.6500    0.0000 C   0  0  0  0  0  0  0  0  0  0  0  0
    2.1434   -1.2375    0.0000 C   0  0  0  0  0  0  0  0  0  0  0  0
    1.4289   -1.6500    0.0000 N   0  0  0  0  0  0  0  0  0  0  0  0
    4.2868   -0.0000    0.0000 S   0  0  0  0  0  0  0  0  0  0  0  0
    5.0013    0.4125    0.0000 O   0  0  0  0  0  0  0  0  0  0  0  0
    4.6993   -0.7145    0.0000 O   0  0  0  0  0  0  0  0  0  0  0  0
    3.8743    0.7145    0.0000 N   0  0  0  0  0  0  0  0  0  0  0  0
  1  2  1  0  0  0  0
  2  3  1  0  0  0  0
  3  4  1  0  0  0  0
  4  5  1  0  0  0  0
  5  6  2  0  0  0  0
  5  7  1  0  0  0  0
  7  8  4  0  0  0  0
  8  9  4  0  0  0  0
  9 10  4  0  0  0  0
 10 11  1  0  0  0  0
 10 12  4  0  0  0  0
 12 13  4  0  0  0  0
  7 13  4  0  0  0  0
 13 14  1  0  0  0  0
  3 14  1  0  0  0  0
  9 15  1  0  0  0  0
 15 16  2  0  0  0  0
 15 17  2  0  0  0  0
 15 18  1  0  0  0  0
M  END

> <ChembankId>
3069814

> <SMILES>
CCC1NC(=O)c2cc(c(Cl)cc2N1)S(=O)(=O)N

> <InChI>
1/C10H12ClN3O3S/c1-2-9-13-7-4-6(11)8(18(12,16)17)3-5(7)10(15)14-9/h3-4,9,13H,2H2,1H3,(H,14,15)(H2,12,16,17)

$$$$
3188162
  Marvin  11101114192D          

 39 41  0  0  0  0            999 V2000
   -2.2321   -1.9770    0.0000 C   0  0  0  0  0  0  0  0  0  0  0  0
   -1.4092   -1.9179    0.0000 C   0  0  0  0  0  0  0  0  0  0  0  0
   -1.0489   -1.1757    0.0000 C   0  0  0  0  0  0  0  0  0  0  0  0
   -1.5115   -0.4926    0.0000 O   0  0  0  0  0  0  0  0  0  0  0  0
   -0.2261   -1.1166    0.0000 O   0  0  0  0  0  0  0  0  0  0  0  0
    0.1342   -0.3744    0.0000 C   0  0  0  0  0  0  0  0  0  0  0  0
   -0.6080   -0.0142    0.0000 C   0  0  0  0  0  0  0  0  0  0  0  0
   -0.9184    0.7502    0.0000 C   0  0  0  0  0  0  0  0  0  0  0  0
   -1.7356    0.8635    0.0000 C   0  0  0  0  0  0  0  0  0  0  0  0
   -2.0461    1.6278    0.0000 C   0  0  0  0  0  0  0  0  0  0  0  0
   -1.5394    2.2789    0.0000 C   0  0  0  0  0  0  0  0  0  0  0  0
   -0.7222    2.1656    0.0000 C   0  0  0  0  0  0  0  0  0  0  0  0
   -0.4117    1.4012    0.0000 C   0  0  0  0  0  0  0  0  0  0  0  0
    0.8764   -0.7347    0.0000 C   0  0  0  0  0  0  0  0  0  0  0  0
    1.5595   -0.2721    0.0000 C   0  0  0  0  0  0  0  0  0  0  0  0
    0.9355   -1.5576    0.0000 C   0  0  0  0  0  0  0  0  0  0  0  0
    1.6776   -1.9179    0.0000 N   0  0  0  0  0  0  0  0  0  0  0  0
    2.3607   -1.4553    0.0000 C   0  0  0  0  0  0  0  0  0  0  0  0
    1.7367   -2.7408    0.0000 C   0  0  0  0  0  0  0  0  0  0  0  0
    0.4945    0.3677    0.0000 C   0  0  0  0  0  0  0  0  0  0  0  0
    0.0319    1.0508    0.0000 C   0  0  0  0  0  0  0  0  0  0  0  0
    0.3922    1.7930    0.0000 C   0  0  0  0  0  0  0  0  0  0  0  0
    1.2150    1.8521    0.0000 C   0  0  0  0  0  0  0  0  0  0  0  0
    1.6776    1.1690    0.0000 C   0  0  0  0  0  0  0  0  0  0  0  0
    1.3174    0.4268    0.0000 C   0  0  0  0  0  0  0  0  0  0  0  0
    4.4822   -0.9723    0.0000 O   0  0  0  0  0  0  0  0  0  0  0  0
    5.1966   -0.5598    0.0000 S   0  0  0  0  0  0  0  0  0  0  0  0
    5.6091   -1.2743    0.0000 O   0  0  0  0  0  0  0  0  0  0  0  0
    4.7841    0.1546    0.0000 O   0  0  0  0  0  0  0  0  0  0  0  0
    5.9111   -0.1473    0.0000 C   0  0  0  0  0  0  0  0  0  0  0  0
    5.9111    0.6777    0.0000 C   0  0  0  0  0  0  0  0  0  0  0  0
    6.6256    1.0902    0.0000 C   0  0  0  0  0  0  0  0  0  0  0  0
    7.3401    0.6777    0.0000 C   0  0  0  0  0  0  0  0  0  0  0  0
    8.0545    1.0902    0.0000 C   0  0  0  0  0  0  0  0  0  0  0  0
    8.7690    0.6777    0.0000 C   0  0  0  0  0  0  0  0  0  0  0  0
    8.7690   -0.1473    0.0000 C   0  0  0  0  0  0  0  0  0  0  0  0
    8.0545   -0.5598    0.0000 C   0  0  0  0  0  0  0  0  0  0  0  0
    7.3401   -0.1473    0.0000 C   0  0  0  0  0  0  0  0  0  0  0  0
    6.6256   -0.5598    0.0000 C   0  0  0  0  0  0  0  0  0  0  0  0
  1  2  1  0  0  0  0
  2  3  1  0  0  0  0
  3  4  2  0  0  0  0
  3  5  1  0  0  0  0
  5  6  1  0  0  0  0
  6  7  1  0  0  0  0
  7  8  1  0  0  0  0
  8  9  4  0  0  0  0
  9 10  4  0  0  0  0
 10 11  4  0  0  0  0
 11 12  4  0  0  0  0
 12 13  4  0  0  0  0
  8 13  4  0  0  0  0
  6 14  1  0  0  0  0
 14 15  1  0  0  0  0
 14 16  1  0  0  0  0
 16 17  1  0  0  0  0
 17 18  1  0  0  0  0
 17 19  1  0  0  0  0
  6 20  1  0  0  0  0
 20 21  4  0  0  0  0
 21 22  4  0  0  0  0
 22 23  4  0  0  0  0
 23 24  4  0  0  0  0
 24 25  4  0  0  0  0
 20 25  4  0  0  0  0
 26 27  1  0  0  0  0
 27 28  2  0  0  0  0
 27 29  2  0  0  0  0
 27 30  1  0  0  0  0
 30 31  4  0  0  0  0
 31 32  4  0  0  0  0
 32 33  4  0  0  0  0
 33 34  4  0  0  0  0
 34 35  4  0  0  0  0
 35 36  4  0  0  0  0
 36 37  4  0  0  0  0
 37 38  4  0  0  0  0
 33 38  4  0  0  0  0
 38 39  4  0  0  0  0
 30 39  4  0  0  0  0
M  END

> <ChembankId>
3188162

> <SMILES>
CCC(=O)OC(Cc1ccccc1)(C(C)CN(C)C)c2ccccc2.OS(=O)(=O)c1ccc2ccccc2c1

> <InChI>
1/C22H29NO2.C10H8O3S/c1-5-21(24)25-22(18(2)17-23(3)4,20-14-10-7-11-15-20)16-19-12-8-6-9-13-19;11-14(12,13)10-6-5-8-3-1-2-4-9(8)7-10/h6-15,18H,5,16-17H2,1-4H3;1-7H,(H,11,12,13)

$$$$
1001977
  Marvin  11101114192D          

 19 19  0  0  0  0            999 V2000
   -5.0013   -0.4125    0.0000 C   0  0  0  0  0  0  0  0  0  0  0  0
   -4.2868   -0.0000    0.0000 C   0  0  0  0  0  0  0  0  0  0  0  0
   -4.2868    0.8250    0.0000 C   0  0  0  0  0  0  0  0  0  0  0  0
   -3.5724   -0.4125    0.0000 N   0  0  0  0  0  0  0  0  0  0  0  0
   -2.8579   -0.0000    0.0000 C   0  0  0  0  0  0  0  0  0  0  0  0
   -2.1434   -0.4125    0.0000 C   0  0  0  0  0  0  0  0  0  0  0  0
   -2.1434   -1.2375    0.0000 O   0  0  0  0  0  0  0  0  0  0  0  0
   -1.4289   -0.0000    0.0000 C   0  0  0  0  0  0  0  0  0  0  0  0
   -0.7145   -0.4125    0.0000 O   0  0  0  0  0  0  0  0  0  0  0  0
    0.0000   -0.0000    0.0000 C   0  0  0  0  0  0  0  0  0  0  0  0
    0.0000    0.8250    0.0000 C   0  0  0  0  0  0  0  0  0  0  0  0
    0.7145    1.2375    0.0000 C   0  0  0  0  0  0  0  0  0  0  0  0
    1.4289    0.8250    0.0000 C   0  0  0  0  0  0  0  0  0  0  0  0
    1.4289   -0.0000    0.0000 C   0  0  0  0  0  0  0  0  0  0  0  0
    0.7145   -0.4125    0.0000 C   0  0  0  0  0  0  0  0  0  0  0  0
    0.7145   -1.2375    0.0000 O   0  0  0  0  0  0  0  0  0  0  0  0
    1.4289   -1.6500    0.0000 C   0  0  0  0  0  0  0  0  0  0  0  0
    1.4289   -2.4750    0.0000 C   0  0  0  0  0  0  0  0  0  0  0  0
    2.1434   -2.8875    0.0000 C   0  0  0  0  0  0  0  0  0  0  0  0
  1  2  1  0  0  0  0
  2  3  1  0  0  0  0
  2  4  1  0  0  0  0
  4  5  1  0  0  0  0
  5  6  1  0  0  0  0
  6  7  1  0  0  0  0
  6  8  1  0  0  0  0
  8  9  1  0  0  0  0
  9 10  1  0  0  0  0
 10 11  4  0  0  0  0
 11 12  4  0  0  0  0
 12 13  4  0  0  0  0
 13 14  4  0  0  0  0
 14 15  4  0  0  0  0
 10 15  4  0  0  0  0
 15 16  1  0  0  0  0
 16 17  1  0  0  0  0
 17 18  1  0  0  0  0
 18 19  2  0  0  0  0
M  END

> <ChembankId>
1001977

> <SMILES>
CC(C)NCC(O)COc1ccccc1OCC=C

> <InChI>
1/C15H23NO3/c1-4-9-18-14-7-5-6-8-15(14)19-11-13(17)10-16-12(2)3/h4-8,12-13,16-17H,1,9-11H2,2-3H3

$$$$
3069816
  Marvin  11101114192D          

 21 21  0  0  0  0            999 V2000
   -1.6500   -4.5079    0.0000 C   0  0  0  0  0  0  0  0  0  0  0  0
   -1.2375   -3.7934    0.0000 C   0  0  0  0  0  0  0  0  0  0  0  0
   -1.6500   -3.0789    0.0000 C   0  0  0  0  0  0  0  0  0  0  0  0
   -1.2375   -2.3645    0.0000 O   0  0  0  0  0  0  0  0  0  0  0  0
   -1.6500   -1.6500    0.0000 C   0  0  0  0  0  0  0  0  0  0  0  0
   -2.4750   -1.6500    0.0000 C   0  0  0  0  0  0  0  0  0  0  0  0
   -2.8875   -0.9355    0.0000 C   0  0  0  0  0  0  0  0  0  0  0  0
   -3.7125   -0.9355    0.0000 N   0  0  0  0  0  0  0  0  0  0  0  0
   -2.4750   -0.2211    0.0000 C   0  0  0  0  0  0  0  0  0  0  0  0
   -1.6500   -0.2211    0.0000 C   0  0  0  0  0  0  0  0  0  0  0  0
   -1.2375   -0.9355    0.0000 C   0  0  0  0  0  0  0  0  0  0  0  0
   -0.4125   -0.9355    0.0000 C   0  0  0  0  0  0  0  0  0  0  0  0
    0.0000   -0.2211    0.0000 O   0  0  0  0  0  0  0  0  0  0  0  0
    0.0000   -1.6500    0.0000 O   0  0  0  0  0  0  0  0  0  0  0  0
    0.8250   -1.6500    0.0000 C   0  0  0  0  0  0  0  0  0  0  0  0
    1.2375   -2.3645    0.0000 C   0  0  0  0  0  0  0  0  0  0  0  0
    2.0625   -2.3645    0.0000 N   0  0  0  0  0  0  0  0  0  0  0  0
    2.4750   -3.0789    0.0000 C   0  0  0  0  0  0  0  0  0  0  0  0
    3.3000   -3.0789    0.0000 C   0  0  0  0  0  0  0  0  0  0  0  0
    2.4750   -1.6500    0.0000 C   0  0  0  0  0  0  0  0  0  0  0  0
    3.3000   -1.6500    0.0000 C   0  0  0  0  0  0  0  0  0  0  0  0
  1  2  1  0  0  0  0
  2  3  1  0  0  0  0
  3  4  1  0  0  0  0
  4  5  1  0  0  0  0
  5  6  4  0  0  0  0
  6  7  4  0  0  0  0
  7  8  1  0  0  0  0
  7  9  4  0  0  0  0
  9 10  4  0  0  0  0
 10 11  4  0  0  0  0
  5 11  4  0  0  0  0
 11 12  1  0  0  0  0
 12 13  2  0  0  0  0
 12 14  1  0  0  0  0
 14 15  1  0  0  0  0
 15 16  1  0  0  0  0
 16 17  1  0  0  0  0
 17 18  1  0  0  0  0
 18 19  1  0  0  0  0
 17 20  1  0  0  0  0
 20 21  1  0  0  0  0
M  END

> <ChembankId>
3069816

> <SMILES>
CCCOc1cc(N)ccc1C(=O)OCCN(CC)CC

> <InChI>
1/C16H26N2O3/c1-4-10-20-15-12-13(17)7-8-14(15)16(19)21-11-9-18(5-2)6-3/h7-8,12H,4-6,9-11,17H2,1-3H3

$$$$
3188163
  Marvin  11101114192D          

 14 15  0  0  0  0            999 V2000
    0.7145   -0.4125    0.0000 C   0  0  0  0  0  0  0  0  0  0  0  0
    0.7145   -1.2375    0.0000 N   0  0  0  0  0  0  0  0  0  0  0  0
    1.3819   -1.7224    0.0000 C   0  0  0  0  0  0  0  0  0  0  0  0
    2.1665   -1.4675    0.0000 O   0  0  0  0  0  0  0  0  0  0  0  0
    1.1270   -2.5070    0.0000 C   0  0  0  0  0  0  0  0  0  0  0  0
    0.3020   -2.5070    0.0000 C   0  0  0  0  0  0  0  0  0  0  0  0
    0.0470   -1.7224    0.0000 C   0  0  0  0  0  0  0  0  0  0  0  0
   -0.7376   -1.4675    0.0000 O   0  0  0  0  0  0  0  0  0  0  0  0
   -0.1830   -3.1745    0.0000 C   0  0  0  0  0  0  0  0  0  0  0  0
    0.1526   -3.9282    0.0000 C   0  0  0  0  0  0  0  0  0  0  0  0
   -0.3323   -4.5956    0.0000 C   0  0  0  0  0  0  0  0  0  0  0  0
   -1.1528   -4.5094    0.0000 C   0  0  0  0  0  0  0  0  0  0  0  0
   -1.4884   -3.7557    0.0000 C   0  0  0  0  0  0  0  0  0  0  0  0
   -1.0034   -3.0882    0.0000 C   0  0  0  0  0  0  0  0  0  0  0  0
  1  2  1  0  0  0  0
  2  3  1  0  0  0  0
  3  4  2  0  0  0  0
  3  5  1  0  0  0  0
  5  6  1  0  0  0  0
  6  7  1  0  0  0  0
  2  7  1  0  0  0  0
  7  8  2  0  0  0  0
  6  9  1  0  0  0  0
  9 10  4  0  0  0  0
 10 11  4  0  0  0  0
 11 12  4  0  0  0  0
 12 13  4  0  0  0  0
 13 14  4  0  0  0  0
  9 14  4  0  0  0  0
M  END

> <ChembankId>
3188163

> <SMILES>
CN1C(=O)CC(C1=O)c2ccccc2

> <InChI>
1/C11H11NO2/c1-12-10(13)7-9(11(12)14)8-5-3-2-4-6-8/h2-6,9H,7H2,1H3

$$$$
3069817
  Marvin  11101114192D          

 22 24  0  0  0  0            999 V2000
    0.0000   -2.4750    0.0000 C   0  0  0  0  0  0  0  0  0  0  0  0
    0.7145   -2.8875    0.0000 N   0  0  0  0  0  0  0  0  0  0  0  0
    0.7145   -3.7125    0.0000 C   0  0  0  0  0  0  0  0  0  0  0  0
    0.0000   -4.1250    0.0000 C   0  0  0  0  0  0  0  0  0  0  0  0
    0.0000   -4.9500    0.0000 C   0  0  0  0  0  0  0  0  0  0  0  0
   -0.7145   -5.3625    0.0000 C   0  0  0  0  0  0  0  0  0  0  0  0
   -0.7145   -6.1875    0.0000 C   0  0  0  0  0  0  0  0  0  0  0  0
   -1.4289   -6.6000    0.0000 C   0  0  0  0  0  0  0  0  0  0  0  0
   -2.1434   -6.1875    0.0000 C   0  0  0  0  0  0  0  0  0  0  0  0
   -2.1434   -5.3625    0.0000 C   0  0  0  0  0  0  0  0  0  0  0  0
   -1.4289   -4.9500    0.0000 C   0  0  0  0  0  0  0  0  0  0  0  0
    1.4289   -2.4750    0.0000 C   0  0  0  0  0  0  0  0  0  0  0  0
    1.4289   -1.6500    0.0000 C   0  0  0  0  0  0  0  0  0  0  0  0
    0.7145   -1.2375    0.0000 C   0  0  0  0  0  0  0  0  0  0  0  0
    0.7145   -0.4125    0.0000 C   0  0  0  0  0  0  0  0  0  0  0  0
    1.4289    0.0000    0.0000 C   0  0  0  0  0  0  0  0  0  0  0  0
    2.1434   -0.4125    0.0000 C   0  0  0  0  0  0  0  0  0  0  0  0
    2.8579    0.0000    0.0000 C   0  0  0  0  0  0  0  0  0  0  0  0
    3.5724   -0.4125    0.0000 C   0  0  0  0  0  0  0  0  0  0  0  0
    3.5724   -1.2375    0.0000 C   0  0  0  0  0  0  0  0  0  0  0  0
    2.8579   -1.6500    0.0000 C   0  0  0  0  0  0  0  0  0  0  0  0
    2.1434   -1.2375    0.0000 C   0  0  0  0  0  0  0  0  0  0  0  0
  1  2  1  0  0  0  0
  2  3  1  0  0  0  0
  3  4  1  0  0  0  0
  4  5  2  0  0  0  0
  5  6  1  0  0  0  0
  6  7  4  0  0  0  0
  7  8  4  0  0  0  0
  8  9  4  0  0  0  0
  9 10  4  0  0  0  0
 10 11  4  0  0  0  0
  6 11  4  0  0  0  0
  2 12  1  0  0  0  0
 12 13  1  0  0  0  0
 13 14  4  0  0  0  0
 14 15  4  0  0  0  0
 15 16  4  0  0  0  0
 16 17  4  0  0  0  0
 17 18  4  0  0  0  0
 18 19  4  0  0  0  0
 19 20  4  0  0  0  0
 20 21  4  0  0  0  0
 21 22  4  0  0  0  0
 13 22  4  0  0  0  0
 17 22  4  0  0  0  0
M  END

> <ChembankId>
3069817

> <SMILES>
CN(C/C=C/c1ccccc1)Cc2cccc3ccccc23

> <InChI>
1/C21H21N/c1-22(16-8-11-18-9-3-2-4-10-18)17-20-14-7-13-19-12-5-6-15-21(19)20/h2-15H,16-17H2,1H3

$$$$
4382
  Marvin  11101114192D          

 25 27  0  0  0  0            999 V2000
    2.8579    2.4750    0.0000 C   0  0  0  0  0  0  0  0  0  0  0  0
    3.5724    2.8875    0.0000 C   0  0  0  0  0  0  0  0  0  0  0  0
    4.2868    2.4750    0.0000 N   0  3  0  0  0  0  0  0  0  0  0  0
    3.8743    1.7605    0.0000 C   0  0  0  0  0  0  0  0  0  0  0  0
    4.6993    3.1895    0.0000 C   0  0  0  0  0  0  0  0  0  0  0  0
    5.5243    3.1895    0.0000 C   0  0  0  0  0  0  0  0  0  0  0  0
    5.0013    2.0625    0.0000 C   0  0  0  0  0  0  0  0  0  0  0  0
    5.7158    2.4750    0.0000 C   0  0  0  0  0  0  0  0  0  0  0  0
    6.4302    2.0625    0.0000 O   0  0  0  0  0  0  0  0  0  0  0  0
    7.1447    2.4750    0.0000 C   0  0  0  0  0  0  0  0  0  0  0  0
    7.1447    3.3000    0.0000 O   0  0  0  0  0  0  0  0  0  0  0  0
    7.8592    2.0625    0.0000 C   0  0  0  0  0  0  0  0  0  0  0  0
    8.5737    2.4750    0.0000 C   0  0  0  0  0  0  0  0  0  0  0  0
    8.5737    3.3000    0.0000 C   0  0  0  0  0  0  0  0  0  0  0  0
    9.2881    3.7125    0.0000 C   0  0  0  0  0  0  0  0  0  0  0  0
   10.0026    3.3000    0.0000 C   0  0  0  0  0  0  0  0  0  0  0  0
   10.0026    2.4750    0.0000 C   0  0  0  0  0  0  0  0  0  0  0  0
    9.2881    2.0625    0.0000 C   0  0  0  0  0  0  0  0  0  0  0  0
    9.2881    1.2375    0.0000 O   0  0  0  0  0  0  0  0  0  0  0  0
    8.5737    0.8250    0.0000 C   0  0  0  0  0  0  0  0  0  0  0  0
    8.5737    0.0000    0.0000 C   0  0  0  0  0  0  0  0  0  0  0  0
    7.8592   -0.4125    0.0000 C   0  0  0  0  0  0  0  0  0  0  0  0
    7.1447    0.0000    0.0000 C   0  0  0  0  0  0  0  0  0  0  0  0
    7.1447    0.8250    0.0000 C   0  0  0  0  0  0  0  0  0  0  0  0
    7.8592    1.2375    0.0000 C   0  0  0  0  0  0  0  0  0  0  0  0
  1  2  1  0  0  0  0
  2  3  1  0  0  0  0
  3  4  1  0  0  0  0
  3  5  1  0  0  0  0
  5  6  1  0  0  0  0
  3  7  1  0  0  0  0
  7  8  1  0  0  0  0
  8  9  1  0  0  0  0
  9 10  1  0  0  0  0
 10 11  2  0  0  0  0
 10 12  1  0  0  0  0
 12 13  1  0  0  0  0
 13 14  4  0  0  0  0
 14 15  4  0  0  0  0
 15 16  4  0  0  0  0
 16 17  4  0  0  0  0
 17 18  4  0  0  0  0
 13 18  4  0  0  0  0
 18 19  1  0  0  0  0
 19 20  1  0  0  0  0
 20 21  4  0  0  0  0
 21 22  4  0  0  0  0
 22 23  4  0  0  0  0
 23 24  4  0  0  0  0
 24 25  4  0  0  0  0
 12 25  1  0  0  0  0
 20 25  4  0  0  0  0
M  CHG  1   3   1
M  END

> <ChembankId>
4382

> <SMILES>
CC[N+](C)(CC)CCOC(=O)C1c2ccccc2Oc3ccccc13

> <InChI>
1/C21H26NO3/c1-4-22(3,5-2)14-15-24-21(23)20-16-10-6-8-12-18(16)25-19-13-9-7-11-17(19)20/h6-13,20H,4-5,14-15H2,1-3H3/q+1

$$$$
2586
  Marvin  11101114192D          

 25 27  0  0  1  0            999 V2000
   -2.3137    6.6970    0.0000 C   0  0  0  0  0  0  0  0  0  0  0  0
   -2.6882    5.9619    0.0000 C   0  0  0  0  0  0  0  0  0  0  0  0
   -3.3801    6.4113    0.0000 C   0  0  0  0  0  0  0  0  0  0  0  0
   -1.9180    5.6663    0.0000 S   0  0  0  0  0  0  0  0  0  0  0  0
   -1.9612    4.8424    0.0000 C   0  0  2  0  0  0  0  0  0  0  0  0
   -1.7477    4.0455    0.0000 C   0  0  2  0  0  0  0  0  0  0  0  0
   -1.0332    3.6330    0.0000 N   0  0  0  0  0  0  0  0  0  0  0  0
   -1.0332    2.8080    0.0000 C   0  0  0  0  0  0  0  0  0  0  0  0
   -1.7477    2.3955    0.0000 O   0  0  0  0  0  0  0  0  0  0  0  0
   -0.3187    2.3955    0.0000 C   0  0  2  0  0  0  0  0  0  0  0  0
    0.3957    2.8080    0.0000 C   0  0  0  0  0  0  0  0  0  0  0  0
    0.3957    3.6330    0.0000 O   0  0  0  0  0  0  0  0  0  0  0  0
    1.1102    2.3955    0.0000 O   0  0  0  0  0  0  0  0  0  0  0  0
   -0.3187    1.5705    0.0000 C   0  0  0  0  0  0  0  0  0  0  0  0
    0.3487    1.0856    0.0000 C   0  0  0  0  0  0  0  0  0  0  0  0
    0.0938    0.3010    0.0000 C   0  0  0  0  0  0  0  0  0  0  0  0
   -0.7312    0.3010    0.0000 S   0  0  0  0  0  0  0  0  0  0  0  0
   -0.9862    1.0856    0.0000 C   0  0  0  0  0  0  0  0  0  0  0  0
   -2.5446    3.8320    0.0000 C   0  0  0  0  0  0  0  0  0  0  0  0
   -2.9571    3.1175    0.0000 O   0  0  0  0  0  0  0  0  0  0  0  0
   -2.7581    4.6289    0.0000 N   0  0  0  0  0  0  0  0  0  0  0  0
   -3.2074    5.3208    0.0000 C   0  0  1  0  0  0  0  0  0  0  0  0
   -4.0313    5.3640    0.0000 C   0  0  0  0  0  0  0  0  0  0  0  0
   -4.4806    4.6721    0.0000 O   0  0  0  0  0  0  0  0  0  0  0  0
   -4.4058    6.0991    0.0000 O   0  0  0  0  0  0  0  0  0  0  0  0
  1  2  1  0  0  0  0
  2  3  1  0  0  0  0
  2  4  1  0  0  0  0
  4  5  1  0  0  0  0
  5  6  1  0  0  0  0
  6  7  1  6  0  0  0
  7  8  1  0  0  0  0
  8  9  2  0  0  0  0
  8 10  1  0  0  0  0
 10 11  1  0  0  0  0
 11 12  2  0  0  0  0
 11 13  1  0  0  0  0
 10 14  1  6  0  0  0
 14 15  4  0  0  0  0
 15 16  4  0  0  0  0
 16 17  4  0  0  0  0
 17 18  4  0  0  0  0
 14 18  4  0  0  0  0
  6 19  1  0  0  0  0
 19 20  2  0  0  0  0
 19 21  1  0  0  0  0
  5 21  1  6  0  0  0
 21 22  1  0  0  0  0
  2 22  1  0  0  0  0
 22 23  1  1  0  0  0
 23 24  2  0  0  0  0
 23 25  1  0  0  0  0
M  END

> <ChembankId>
2586

> <SMILES>
CC1(C)S[C@@H]2[C@H](NC(=O)[C@H](C(=O)O)c3ccsc3)C(=O)N2[C@H]1C(=O)O

> <InChI>
1/C15H16N2O6S2/c1-15(2)9(14(22)23)17-11(19)8(12(17)25-15)16-10(18)7(13(20)21)6-3-4-24-5-6/h3-5,7-9,12H,1-2H3,(H,16,18)(H,20,21)(H,22,23)/t7-,8-,9-,12+/m0/s1

$$$$
3188280
  Marvin  11101114192D          

 21 22  0  0  0  0            999 V2000
    2.8579   -0.8250    0.0000 C   0  0  0  0  0  0  0  0  0  0  0  0
    2.1434   -1.2375    0.0000 O   0  0  0  0  0  0  0  0  0  0  0  0
    2.1434   -2.0625    0.0000 C   0  0  0  0  0  0  0  0  0  0  0  0
    2.8579   -2.4750    0.0000 N   0  0  0  0  0  0  0  0  0  0  0  0
    2.8579   -3.3000    0.0000 C   0  0  0  0  0  0  0  0  0  0  0  0
    2.1434   -3.7125    0.0000 N   0  0  0  0  0  0  0  0  0  0  0  0
    1.4289   -3.3000    0.0000 C   0  0  0  0  0  0  0  0  0  0  0  0
    0.7145   -3.7125    0.0000 N   0  0  0  0  0  0  0  0  0  0  0  0
    0.0000   -3.3000    0.0000 S   0  0  0  0  0  0  0  0  0  0  0  0
    0.4125   -2.5855    0.0000 O   0  0  0  0  0  0  0  0  0  0  0  0
   -0.4125   -4.0145    0.0000 O   0  0  0  0  0  0  0  0  0  0  0  0
   -0.7145   -2.8875    0.0000 C   0  0  0  0  0  0  0  0  0  0  0  0
   -1.4289   -3.3000    0.0000 C   0  0  0  0  0  0  0  0  0  0  0  0
   -2.1434   -2.8875    0.0000 C   0  0  0  0  0  0  0  0  0  0  0  0
   -2.1434   -2.0625    0.0000 C   0  0  0  0  0  0  0  0  0  0  0  0
   -2.8579   -1.6500    0.0000 N   0  0  0  0  0  0  0  0  0  0  0  0
   -1.4289   -1.6500    0.0000 C   0  0  0  0  0  0  0  0  0  0  0  0
   -0.7145   -2.0625    0.0000 C   0  0  0  0  0  0  0  0  0  0  0  0
    1.4289   -2.4750    0.0000 C   0  0  0  0  0  0  0  0  0  0  0  0
    0.7145   -2.0625    0.0000 O   0  0  0  0  0  0  0  0  0  0  0  0
    0.7145   -1.2375    0.0000 C   0  0  0  0  0  0  0  0  0  0  0  0
  1  2  1  0  0  0  0
  2  3  1  0  0  0  0
  3  4  4  0  0  0  0
  4  5  4  0  0  0  0
  5  6  4  0  0  0  0
  6  7  4  0  0  0  0
  7  8  1  0  0  0  0
  8  9  1  0  0  0  0
  9 10  2  0  0  0  0
  9 11  2  0  0  0  0
  9 12  1  0  0  0  0
 12 13  4  0  0  0  0
 13 14  4  0  0  0  0
 14 15  4  0  0  0  0
 15 16  1  0  0  0  0
 15 17  4  0  0  0  0
 17 18  4  0  0  0  0
 12 18  4  0  0  0  0
  7 19  4  0  0  0  0
  3 19  4  0  0  0  0
 19 20  1  0  0  0  0
 20 21  1  0  0  0  0
M  END

> <ChembankId>
3188280

> <SMILES>
COc1ncnc(NS(=O)(=O)c2ccc(N)cc2)c1OC

> <InChI>
1/C12H14N4O4S/c1-19-10-11(14-7-15-12(10)20-2)16-21(17,18)9-5-3-8(13)4-6-9/h3-7H,13H2,1-2H3,(H,14,15,16)

$$$$
3487604
  Marvin  11101114192D          

 33 35  0  0  0  0            999 V2000
   -2.1434   -0.4125    0.0000 C   0  0  0  0  0  0  0  0  0  0  0  0
   -1.4289   -0.0000    0.0000 C   0  0  0  0  0  0  0  0  0  0  0  0
   -0.7145   -0.4125    0.0000 N   0  0  0  0  0  0  0  0  0  0  0  0
   -0.7145   -1.2375    0.0000 C   0  0  0  0  0  0  0  0  0  0  0  0
   -1.4289   -1.6500    0.0000 C   0  0  0  0  0  0  0  0  0  0  0  0
   -1.4289   -2.4750    0.0000 C   0  0  0  0  0  0  0  0  0  0  0  0
   -2.1434   -2.8875    0.0000 N   0  0  0  0  0  0  0  0  0  0  0  0
   -0.7145   -2.8875    0.0000 C   0  0  0  0  0  0  0  0  0  0  0  0
   -0.7145   -3.7125    0.0000 O   0  0  0  0  0  0  0  0  0  0  0  0
   -1.4289   -4.1250    0.0000 C   0  0  0  0  0  0  0  0  0  0  0  0
   -2.1434   -3.7125    0.0000 O   0  0  0  0  0  0  0  0  0  0  0  0
   -2.8579   -4.1250    0.0000 C   0  0  0  0  0  0  0  0  0  0  0  0
   -2.8579   -4.9500    0.0000 C   0  0  0  0  0  0  0  0  0  0  0  0
   -2.1434   -5.3625    0.0000 C   0  0  0  0  0  0  0  0  0  0  0  0
   -1.4289   -4.9500    0.0000 C   0  0  0  0  0  0  0  0  0  0  0  0
   -0.7145   -5.3625    0.0000 N   0  0  0  0  0  0  0  0  0  0  0  0
   -3.5724   -3.7125    0.0000 C   0  0  0  0  0  0  0  0  0  0  0  0
   -4.2868   -4.1250    0.0000 N   0  0  0  0  0  0  0  0  0  0  0  0
    0.0000   -2.4750    0.0000 C   0  0  0  0  0  0  0  0  0  0  0  0
    0.7145   -2.8875    0.0000 O   0  0  0  0  0  0  0  0  0  0  0  0
    0.0000   -1.6500    0.0000 C   0  0  0  0  0  0  0  0  0  0  0  0
    0.7145   -1.2375    0.0000 O   0  0  0  0  0  0  0  0  0  0  0  0
    0.7145   -0.4125    0.0000 C   0  0  0  0  0  0  0  0  0  0  0  0
    0.0000   -0.0000    0.0000 O   0  0  0  0  0  0  0  0  0  0  0  0
    0.0000    0.8250    0.0000 C   0  0  0  0  0  0  0  0  0  0  0  0
    0.7145    1.2375    0.0000 C   0  0  0  0  0  0  0  0  0  0  0  0
    0.1842    1.8695    0.0000 C   0  0  0  0  0  0  0  0  0  0  0  0
    1.2448    1.8695    0.0000 O   0  0  0  0  0  0  0  0  0  0  0  0
    1.4289    0.8250    0.0000 C   0  0  0  0  0  0  0  0  0  0  0  0
    2.1434    1.2375    0.0000 N   0  0  0  0  0  0  0  0  0  0  0  0
    2.8579    0.8250    0.0000 C   0  0  0  0  0  0  0  0  0  0  0  0
    1.4289   -0.0000    0.0000 C   0  0  0  0  0  0  0  0  0  0  0  0
    2.1434   -0.4125    0.0000 O   0  0  0  0  0  0  0  0  0  0  0  0
  1  2  1  0  0  0  0
  2  3  1  0  0  0  0
  3  4  1  0  0  0  0
  4  5  1  0  0  0  0
  5  6  1  0  0  0  0
  6  7  1  0  0  0  0
  6  8  1  0  0  0  0
  8  9  1  0  0  0  0
  9 10  1  0  0  0  0
 10 11  1  0  0  0  0
 11 12  1  0  0  0  0
 12 13  2  0  0  0  0
 13 14  1  0  0  0  0
 14 15  1  0  0  0  0
 10 15  1  0  0  0  0
 15 16  1  0  0  0  0
 12 17  1  0  0  0  0
 17 18  1  0  0  0  0
  8 19  1  0  0  0  0
 19 20  1  0  0  0  0
 19 21  1  0  0  0  0
  4 21  1  0  0  0  0
 21 22  1  0  0  0  0
 22 23  1  0  0  0  0
 23 24  1  0  0  0  0
 24 25  1  0  0  0  0
 25 26  1  0  0  0  0
 26 27  1  0  0  0  0
 26 28  1  0  0  0  0
 26 29  1  0  0  0  0
 29 30  1  0  0  0  0
 30 31  1  0  0  0  0
 29 32  1  0  0  0  0
 23 32  1  0  0  0  0
 32 33  1  0  0  0  0
M  END

> <ChembankId>
3487604

> <SMILES>
CCNC1CC(N)C(OC2OC(=CCC2N)CN)C(O)C1OC3OCC(C)(O)C(NC)C3O

> <InChI>
1/C21H41N5O7/c1-4-26-13-7-12(24)16(32-19-11(23)6-5-10(8-22)31-19)14(27)17(13)33-20-15(28)18(25-3)21(2,29)9-30-20/h5,11-20,25-29H,4,6-9,22-24H2,1-3H3/t11-,12+,13-,14+,15-,16-,17+,18-,19+,20+,21+/m0/s1

$$$$
3188286
  Marvin  11101114192D          

 48 49  0  0  0  0            999 V2000
    4.0799   -4.4978    0.0000 N   0  0  0  0  0  0  0  0  0  0  0  0
    4.1650   -5.3222    0.0000 C   0  0  0  0  0  0  0  0  0  0  0  0
    4.5956   -6.0507    0.0000 C   0  0  0  0  0  0  0  0  0  0  0  0
    5.2988   -6.5230    0.0000 C   0  0  0  0  0  0  0  0  0  0  0  0
    6.1360   -6.2905    0.0000 C   0  0  0  0  0  0  0  0  0  0  0  0
    5.7950   -5.5206    0.0000 N   0  0  0  0  0  0  0  0  0  0  0  0
    7.0090   -6.2563    0.0000 C   0  0  0  0  0  0  0  0  0  0  0  0
    7.7478   -5.7712    0.0000 C   0  0  0  0  0  0  0  0  0  0  0  0
    7.0726   -5.2508    0.0000 O   0  0  0  0  0  0  0  0  0  0  0  0
    8.6450   -5.3222    0.0000 N   0  0  0  0  0  0  0  0  0  0  0  0
    9.5707   -5.4409    0.0000 C   0  0  0  0  0  0  0  0  0  0  0  0
   10.2340   -5.9316    0.0000 C   0  0  0  0  0  0  0  0  0  0  0  0
   10.9905   -5.6025    0.0000 N   0  0  0  0  0  0  0  0  0  0  0  0
   11.0838   -4.7828    0.0000 C   0  0  0  0  0  0  0  0  0  0  0  0
   11.6773   -4.0008    0.0000 O   0  0  0  0  0  0  0  0  0  0  0  0
   10.4205   -4.2921    0.0000 C   0  0  0  0  0  0  0  0  0  0  0  0
   10.5138   -3.4724    0.0000 N   0  0  0  0  0  0  0  0  0  0  0  0
    9.8505   -2.9818    0.0000 C   0  0  0  0  0  0  0  0  0  0  0  0
   10.5899   -2.5508    0.0000 O   0  0  0  0  0  0  0  0  0  0  0  0
    9.9438   -2.1621    0.0000 C   0  0  0  0  0  0  0  0  0  0  0  0
   10.3060   -1.3638    0.0000 C   0  0  0  0  0  0  0  0  0  0  0  0
   10.5380   -0.5491    0.0000 N   0  0  0  0  0  0  0  0  0  0  0  0
   10.6233    0.2971    0.0000 C   0  0  0  0  0  0  0  0  0  0  0  0
    9.9756    0.8289    0.0000 O   0  0  0  0  0  0  0  0  0  0  0  0
   11.3239    0.7567    0.0000 N   0  0  0  0  0  0  0  0  0  0  0  0
    9.2805   -1.6715    0.0000 N   0  0  0  0  0  0  0  0  0  0  0  0
    8.5240   -2.0006    0.0000 C   0  0  0  0  0  0  0  0  0  0  0  0
    8.0131   -1.3239    0.0000 O   0  0  0  0  0  0  0  0  0  0  0  0
    8.4307   -2.8203    0.0000 C   0  0  0  0  0  0  0  0  0  0  0  0
    9.0395   -3.3372    0.0000 C   0  0  0  0  0  0  0  0  0  0  0  0
    9.4160   -4.0414    0.0000 O   0  0  0  0  0  0  0  0  0  0  0  0
    7.6742   -3.1494    0.0000 N   0  0  0  0  0  0  0  0  0  0  0  0
    7.5809   -3.9691    0.0000 C   0  0  0  0  0  0  0  0  0  0  0  0
    6.7161   -4.0817    0.0000 O   0  0  0  0  0  0  0  0  0  0  0  0
    8.2442   -4.4597    0.0000 C   0  0  0  0  0  0  0  0  0  0  0  0
    8.0154   -3.6450    0.0000 C   0  0  0  0  0  0  0  0  0  0  0  0
    7.1158   -3.3232    0.0000 O   0  0  0  0  0  0  0  0  0  0  0  0
    8.1509   -5.2794    0.0000 N   0  0  0  0  0  0  0  0  0  0  0  0
    8.8142   -5.7700    0.0000 C   0  0  0  0  0  0  0  0  0  0  0  0
    9.1797   -4.9735    0.0000 O   0  0  0  0  0  0  0  0  0  0  0  0
   11.1770   -3.9630    0.0000 C   0  0  0  0  0  0  0  0  0  0  0  0
   11.2703   -3.1433    0.0000 C   0  0  0  0  0  0  0  0  0  0  0  0
   12.0268   -2.8142    0.0000 C   0  0  0  0  0  0  0  0  0  0  0  0
   12.4711   -2.0946    0.0000 O   0  0  0  0  0  0  0  0  0  0  0  0
   12.6901   -3.3049    0.0000 N   0  0  0  0  0  0  0  0  0  0  0  0
   12.5968   -4.1246    0.0000 C   0  0  0  0  0  0  0  0  0  0  0  0
   13.3389   -4.5294    0.0000 N   0  0  0  0  0  0  0  0  0  0  0  0
   11.8403   -4.4537    0.0000 N   0  0  0  0  0  0  0  0  0  0  0  0
  1  2  1  0  0  0  0
  2  3  1  0  0  0  0
  3  4  1  0  0  0  0
  4  5  1  0  0  0  0
  5  6  1  0  0  0  0
  5  7  1  0  0  0  0
  7  8  1  0  0  0  0
  8  9  2  0  0  0  0
  8 10  1  0  0  0  0
 10 11  1  0  0  0  0
 11 12  1  0  0  0  0
 12 13  1  0  0  0  0
 13 14  1  0  0  0  0
 14 15  2  0  0  0  0
 14 16  1  0  0  0  0
 16 17  1  0  0  0  0
 17 18  1  0  0  0  0
 18 19  2  0  0  0  0
 18 20  1  0  0  0  0
 20 21  2  0  0  0  0
 21 22  1  0  0  0  0
 22 23  1  0  0  0  0
 23 24  2  0  0  0  0
 23 25  1  0  0  0  0
 20 26  1  0  0  0  0
 26 27  1  0  0  0  0
 27 28  2  0  0  0  0
 27 29  1  0  0  0  0
 29 30  1  0  0  0  0
 30 31  1  0  0  0  0
 29 32  1  0  0  0  0
 32 33  1  0  0  0  0
 33 34  2  0  0  0  0
 33 35  1  0  0  0  0
 35 36  1  0  0  0  0
 36 37  1  0  0  0  0
 35 38  1  0  0  0  0
 38 39  1  0  0  0  0
 11 39  1  0  0  0  0
 39 40  2  0  0  0  0
 16 41  1  0  0  0  0
 41 42  1  0  0  0  0
 42 43  1  0  0  0  0
 43 44  1  0  0  0  0
 43 45  1  0  0  0  0
 45 46  2  0  0  0  0
 46 47  1  0  0  0  0
 46 48  1  0  0  0  0
 41 48  1  0  0  0  0
M  END

> <ChembankId>
3188286

> <SMILES>
NCCCC(N)CC(=O)NC1CNC(=O)C(NC(=O)/C(=C/NC(=O)N)/NC(=O)C(CO)NC(=O)C(CO)NC1=O)C2CC(O)N=C(N)N2

> <InChI>
1/C25H43N13O10/c26-3-1-2-10(27)4-16(41)32-12-6-30-23(47)18(11-5-17(42)37-24(28)36-11)38-20(44)13(7-31-25(29)48)33-21(45)14(8-39)35-22(46)15(9-40)34-19(12)43/h7,10-12,14-15,17-18,39-40,42H,1-6,8-9,26-27H2,(H,30,47)(H,32,41)(H,33,45)(H,34,43)(H,35,46)(H,38,44)(H3,28,36,37)(H3,29,31,48)/b13-7-/t10-,11+,12+,14+,15-,17+,18-/m1/s1

$$$$
3069863
  Marvin  11101114192D          

 49 53  0  0  1  0            999 V2000
    5.0013    1.2375    0.0000 C   0  0  0  0  0  0  0  0  0  0  0  0
    5.7158    0.8250    0.0000 C   0  0  0  0  0  0  0  0  0  0  0  0
    6.1283    1.5395    0.0000 C   0  0  0  0  0  0  0  0  0  0  0  0
    5.3033    0.1105    0.0000 C   0  0  0  0  0  0  0  0  0  0  0  0
    6.4302    0.4125    0.0000 N   0  0  0  0  0  0  0  0  0  0  0  0
    6.4302   -0.4125    0.0000 C   0  0  0  0  0  0  0  0  0  0  0  0
    7.1447   -0.8250    0.0000 O   0  0  0  0  0  0  0  0  0  0  0  0
    5.7158   -0.8250    0.0000 C   0  0  2  0  0  0  0  0  0  0  0  0
    5.0013   -0.4125    0.0000 C   0  0  0  0  0  0  0  0  0  0  0  0
    4.2868   -0.8250    0.0000 C   0  0  2  0  0  0  0  0  0  0  0  0
    3.5724   -0.4125    0.0000 C   0  0  0  0  0  0  0  0  0  0  0  0
    2.8579   -0.8250    0.0000 C   0  0  0  0  0  0  0  0  0  0  0  0
    2.8579   -1.6500    0.0000 C   0  0  0  0  0  0  0  0  0  0  0  0
    3.5724   -2.0625    0.0000 C   0  0  0  0  0  0  0  0  0  0  0  0
    4.2868   -1.6500    0.0000 C   0  0  2  0  0  0  0  0  0  0  0  0
    5.0013   -2.0625    0.0000 C   0  0  0  0  0  0  0  0  0  0  0  0
    5.7158   -1.6500    0.0000 N   0  0  0  0  0  0  0  0  0  0  0  0
    6.4302   -2.0625    0.0000 C   0  0  0  0  0  0  0  0  0  0  0  0
    7.1447   -1.6500    0.0000 C   0  0  1  0  0  0  0  0  0  0  0  0
    7.6296   -0.9826    0.0000 O   0  0  0  0  0  0  0  0  0  0  0  0
    7.8592   -2.0625    0.0000 C   0  0  2  0  0  0  0  0  0  0  0  0
    7.8592   -2.8875    0.0000 C   0  0  0  0  0  0  0  0  0  0  0  0
    7.1447   -3.3000    0.0000 C   0  0  0  0  0  0  0  0  0  0  0  0
    7.1447   -4.1250    0.0000 C   0  0  0  0  0  0  0  0  0  0  0  0
    6.4302   -4.5375    0.0000 C   0  0  0  0  0  0  0  0  0  0  0  0
    5.7158   -4.1250    0.0000 C   0  0  0  0  0  0  0  0  0  0  0  0
    5.7158   -3.3000    0.0000 C   0  0  0  0  0  0  0  0  0  0  0  0
    6.4302   -2.8875    0.0000 C   0  0  0  0  0  0  0  0  0  0  0  0
    8.5737   -1.6500    0.0000 N   0  0  0  0  0  0  0  0  0  0  0  0
    9.2881   -2.0625    0.0000 C   0  0  0  0  0  0  0  0  0  0  0  0
    9.2881   -2.8875    0.0000 O   0  0  0  0  0  0  0  0  0  0  0  0
   10.0026   -1.6500    0.0000 C   0  0  2  0  0  0  0  0  0  0  0  0
   10.0026   -0.8250    0.0000 C   0  0  0  0  0  0  0  0  0  0  0  0
    9.2881   -0.4125    0.0000 C   0  0  0  0  0  0  0  0  0  0  0  0
    8.5737   -0.8250    0.0000 O   0  0  0  0  0  0  0  0  0  0  0  0
    9.2881    0.4125    0.0000 N   0  0  0  0  0  0  0  0  0  0  0  0
   10.7171   -2.0625    0.0000 N   0  0  0  0  0  0  0  0  0  0  0  0
   11.4315   -1.6500    0.0000 C   0  0  0  0  0  0  0  0  0  0  0  0
   11.4315   -0.8250    0.0000 O   0  0  0  0  0  0  0  0  0  0  0  0
   12.1460   -2.0625    0.0000 C   0  0  0  0  0  0  0  0  0  0  0  0
   12.8605   -1.6500    0.0000 C   0  0  0  0  0  0  0  0  0  0  0  0
   13.5749   -2.0625    0.0000 C   0  0  0  0  0  0  0  0  0  0  0  0
   13.5749   -2.8875    0.0000 C   0  0  0  0  0  0  0  0  0  0  0  0
   14.2894   -3.3000    0.0000 C   0  0  0  0  0  0  0  0  0  0  0  0
   14.2894   -4.1250    0.0000 C   0  0  0  0  0  0  0  0  0  0  0  0
   13.5749   -4.5375    0.0000 C   0  0  0  0  0  0  0  0  0  0  0  0
   12.8605   -4.1250    0.0000 C   0  0  0  0  0  0  0  0  0  0  0  0
   12.8605   -3.3000    0.0000 C   0  0  0  0  0  0  0  0  0  0  0  0
   12.1460   -2.8875    0.0000 N   0  0  0  0  0  0  0  0  0  0  0  0
  1  2  1  0  0  0  0
  2  3  1  0  0  0  0
  2  4  1  0  0  0  0
  2  5  1  0  0  0  0
  5  6  1  0  0  0  0
  6  7  2  0  0  0  0
  8  6  1  1  0  0  0
  8  9  1  0  0  0  0
 10  9  1  1  0  0  0
 10 11  1  0  0  0  0
 11 12  1  0  0  0  0
 12 13  1  0  0  0  0
 13 14  1  0  0  0  0
 14 15  1  0  0  0  0
 10 15  1  0  0  0  0
 15 16  1  1  0  0  0
 16 17  1  0  0  0  0
  8 17  1  0  0  0  0
 17 18  1  0  0  0  0
 18 19  1  0  0  0  0
 19 20  1  1  0  0  0
 19 21  1  0  0  0  0
 21 22  1  0  0  0  0
 22 23  1  0  0  0  0
 23 24  4  0  0  0  0
 24 25  4  0  0  0  0
 25 26  4  0  0  0  0
 26 27  4  0  0  0  0
 27 28  4  0  0  0  0
 23 28  4  0  0  0  0
 21 29  1  1  0  0  0
 29 30  1  0  0  0  0
 30 31  2  0  0  0  0
 30 32  1  0  0  0  0
 32 33  1  0  0  0  0
 33 34  1  0  0  0  0
 34 35  2  0  0  0  0
 34 36  1  0  0  0  0
 32 37  1  6  0  0  0
 37 38  1  0  0  0  0
 38 39  2  0  0  0  0
 38 40  1  0  0  0  0
 40 41  4  0  0  0  0
 41 42  4  0  0  0  0
 42 43  4  0  0  0  0
 43 44  4  0  0  0  0
 44 45  4  0  0  0  0
 45 46  4  0  0  0  0
 46 47  4  0  0  0  0
 47 48  4  0  0  0  0
 43 48  4  0  0  0  0
 48 49  4  0  0  0  0
 40 49  4  0  0  0  0
M  END

> <ChembankId>
3069863

> <SMILES>
CC(C)(C)NC(=O)[C@@H]1C[C@@H]2CCCC[C@@H]2CN1C[C@@H](O)[C@H](Cc3ccccc3)NC(=O)[C@H](CC(=O)N)NC(=O)c4ccc5ccccc5n4

> <InChI>
1/C38H50N6O5/c1-38(2,3)43-37(49)32-20-26-14-7-8-15-27(26)22-44(32)23-33(45)30(19-24-11-5-4-6-12-24)41-36(48)31(21-34(39)46)42-35(47)29-18-17-25-13-9-10-16-28(25)40-29/h4-6,9-13,16-18,26-27,30-33,45H,7-8,14-15,19-23H2,1-3H3,(H2,39,46)(H,41,48)(H,42,47)(H,43,49)

$$$$
2884
  Marvin  11101114192D          

 23 25  0  0  1  0            999 V2000
    2.5600    0.7927    0.0000 C   0  0  0  0  0  0  0  0  0  0  0  0
    1.9469    1.3448    0.0000 C   0  0  0  0  0  0  0  0  0  0  0  0
    2.5600    1.8968    0.0000 C   0  0  0  0  0  0  0  0  0  0  0  0
    1.4620    0.6773    0.0000 S   0  0  0  0  0  0  0  0  0  0  0  0
    0.6773    0.9323    0.0000 C   0  0  2  0  0  0  0  0  0  0  0  0
   -0.1477    0.9323    0.0000 C   0  0  2  0  0  0  0  0  0  0  0  0
   -0.7310    0.3489    0.0000 N   0  0  0  0  0  0  0  0  0  0  0  0
   -1.5279    0.5624    0.0000 C   0  0  0  0  0  0  0  0  0  0  0  0
   -1.7414    1.3593    0.0000 O   0  0  0  0  0  0  0  0  0  0  0  0
   -2.1113   -0.0209    0.0000 C   0  0  0  0  0  0  0  0  0  0  0  0
   -2.5845    0.6549    0.0000 N   0  0  0  0  0  0  0  0  0  0  0  0
   -1.4355   -0.4941    0.0000 C   0  0  0  0  0  0  0  0  0  0  0  0
   -1.5074   -1.3160    0.0000 C   0  0  0  0  0  0  0  0  0  0  0  0
   -2.2551   -1.6646    0.0000 C   0  0  0  0  0  0  0  0  0  0  0  0
   -2.9309   -1.1914    0.0000 C   0  0  0  0  0  0  0  0  0  0  0  0
   -2.8590   -0.3696    0.0000 C   0  0  0  0  0  0  0  0  0  0  0  0
   -0.1477    1.7573    0.0000 C   0  0  0  0  0  0  0  0  0  0  0  0
   -0.7310    2.3406    0.0000 O   0  0  0  0  0  0  0  0  0  0  0  0
    0.6773    1.7573    0.0000 N   0  0  0  0  0  0  0  0  0  0  0  0
    1.4620    2.0122    0.0000 C   0  0  1  0  0  0  0  0  0  0  0  0
    1.7169    2.7968    0.0000 C   0  0  0  0  0  0  0  0  0  0  0  0
    1.1649    3.4099    0.0000 O   0  0  0  0  0  0  0  0  0  0  0  0
    2.5239    2.9684    0.0000 O   0  0  0  0  0  0  0  0  0  0  0  0
  1  2  1  0  0  0  0
  2  3  1  0  0  0  0
  2  4  1  0  0  0  0
  4  5  1  0  0  0  0
  5  6  1  0  0  0  0
  6  7  1  6  0  0  0
  7  8  1  0  0  0  0
  8  9  2  0  0  0  0
  8 10  1  0  0  0  0
 10 11  1  0  0  0  0
 10 12  1  0  0  0  0
 12 13  1  0  0  0  0
 13 14  1  0  0  0  0
 14 15  1  0  0  0  0
 15 16  1  0  0  0  0
 10 16  1  0  0  0  0
  6 17  1  0  0  0  0
 17 18  2  0  0  0  0
 17 19  1  0  0  0  0
  5 19  1  6  0  0  0
 19 20  1  0  0  0  0
  2 20  1  0  0  0  0
 20 21  1  1  0  0  0
 21 22  2  0  0  0  0
 21 23  1  0  0  0  0
M  END

> <ChembankId>
2884

> <SMILES>
CC1(C)S[C@@H]2[C@H](NC(=O)C3(N)CCCCC3)C(=O)N2[C@H]1C(=O)O

> <InChI>
1/C15H23N3O4S/c1-14(2)9(12(20)21)18-10(19)8(11(18)23-14)17-13(22)15(16)6-4-3-5-7-15/h8-9,11H,3-7,16H2,1-2H3,(H,17,22)(H,20,21)

$$$$
3221455
  Marvin  11101114192D          

 67 72  0  0  0  0            999 V2000
   -1.1890  -14.9987    0.0000 C   0  0  0  0  0  0  0  0  0  0  0  0
   -1.5763  -14.2703    0.0000 O   0  0  0  0  0  0  0  0  0  0  0  0
   -1.1391  -13.5706    0.0000 C   0  0  0  0  0  0  0  0  0  0  0  0
   -1.5264  -12.8422    0.0000 C   0  0  0  0  0  0  0  0  0  0  0  0
   -1.0892  -12.1426    0.0000 C   0  0  0  0  0  0  0  0  0  0  0  0
   -0.2647  -12.1714    0.0000 C   0  0  0  0  0  0  0  0  0  0  0  0
    0.1724  -11.4717    0.0000 C   0  0  0  0  0  0  0  0  0  0  0  0
   -0.2149  -10.7433    0.0000 C   0  0  0  0  0  0  0  0  0  0  0  0
   -1.0394  -10.7145    0.0000 C   0  0  0  0  0  0  0  0  0  0  0  0
   -1.4766  -11.4141    0.0000 C   0  0  0  0  0  0  0  0  0  0  0  0
   -2.3011  -11.3853    0.0000 C   0  0  0  0  0  0  0  0  0  0  0  0
   -2.7382  -12.0850    0.0000 O   0  0  0  0  0  0  0  0  0  0  0  0
   -3.5627  -12.0562    0.0000 C   0  0  0  0  0  0  0  0  0  0  0  0
   -2.6884  -10.6569    0.0000 C   0  0  0  0  0  0  0  0  0  0  0  0
   -3.5129  -10.6281    0.0000 O   0  0  0  0  0  0  0  0  0  0  0  0
   -3.9002   -9.8997    0.0000 C   0  0  0  0  0  0  0  0  0  0  0  0
   -2.2512   -9.9573    0.0000 C   0  0  0  0  0  0  0  0  0  0  0  0
   -1.4267   -9.9861    0.0000 C   0  0  0  0  0  0  0  0  0  0  0  0
   -0.9895   -9.2864    0.0000 C   0  0  0  0  0  0  0  0  0  0  0  0
   -0.1650   -9.3152    0.0000 C   0  0  0  0  0  0  0  0  0  0  0  0
    0.2223  -10.0436    0.0000 N   0  3  0  0  0  0  0  0  0  0  0  0
    0.9638   -9.6820    0.0000 C   0  0  0  0  0  0  0  0  0  0  0  0
    0.9368  -10.4561    0.0000 C   0  0  0  0  0  0  0  0  0  0  0  0
    1.6513  -10.0436    0.0000 C   0  0  0  0  0  0  0  0  0  0  0  0
    2.3657  -10.4561    0.0000 C   0  0  0  0  0  0  0  0  0  0  0  0
    2.3657  -11.2811    0.0000 O   0  0  0  0  0  0  0  0  0  0  0  0
    3.0802  -10.0436    0.0000 O   0  0  0  0  0  0  0  0  0  0  0  0
    3.7947  -10.4561    0.0000 C   0  0  0  0  0  0  0  0  0  0  0  0
    4.5091  -10.0436    0.0000 C   0  0  0  0  0  0  0  0  0  0  0  0
    5.2236  -10.4561    0.0000 C   0  0  0  0  0  0  0  0  0  0  0  0
    5.9381  -10.0436    0.0000 C   0  0  0  0  0  0  0  0  0  0  0  0
    6.6525  -10.4561    0.0000 C   0  0  0  0  0  0  0  0  0  0  0  0
    7.3670  -10.0436    0.0000 O   0  0  0  0  0  0  0  0  0  0  0  0
    8.0815  -10.4561    0.0000 C   0  0  0  0  0  0  0  0  0  0  0  0
    8.0815  -11.2811    0.0000 O   0  0  0  0  0  0  0  0  0  0  0  0
    8.7960  -10.0436    0.0000 C   0  0  0  0  0  0  0  0  0  0  0  0
    9.5104  -10.4561    0.0000 C   0  0  0  0  0  0  0  0  0  0  0  0
   10.2249  -10.0436    0.0000 N   0  3  0  0  0  0  0  0  0  0  0  0
   10.5071  -10.8189    0.0000 C   0  0  0  0  0  0  0  0  0  0  0  0
    9.6946   -9.4117    0.0000 C   0  0  0  0  0  0  0  0  0  0  0  0
    9.9768   -8.6364    0.0000 C   0  0  0  0  0  0  0  0  0  0  0  0
   10.7892   -8.4932    0.0000 C   0  0  0  0  0  0  0  0  0  0  0  0
   11.0714   -7.7179    0.0000 C   0  0  0  0  0  0  0  0  0  0  0  0
   11.8839   -7.5746    0.0000 C   0  0  0  0  0  0  0  0  0  0  0  0
   12.1660   -6.7994    0.0000 O   0  0  0  0  0  0  0  0  0  0  0  0
   12.9785   -6.6561    0.0000 C   0  0  0  0  0  0  0  0  0  0  0  0
   12.4142   -8.2066    0.0000 C   0  0  0  0  0  0  0  0  0  0  0  0
   13.2266   -8.0634    0.0000 O   0  0  0  0  0  0  0  0  0  0  0  0
   13.7569   -8.6954    0.0000 C   0  0  0  0  0  0  0  0  0  0  0  0
   12.1320   -8.9819    0.0000 C   0  0  0  0  0  0  0  0  0  0  0  0
   11.3195   -9.1251    0.0000 C   0  0  0  0  0  0  0  0  0  0  0  0
   11.0374   -9.9004    0.0000 C   0  0  0  0  0  0  0  0  0  0  0  0
   11.5677  -10.5324    0.0000 C   0  0  0  0  0  0  0  0  0  0  0  0
   12.3801  -10.3891    0.0000 C   0  0  0  0  0  0  0  0  0  0  0  0
   12.6623   -9.6139    0.0000 C   0  0  0  0  0  0  0  0  0  0  0  0
   13.4748   -9.4706    0.0000 C   0  0  0  0  0  0  0  0  0  0  0  0
   14.0051  -10.1026    0.0000 C   0  0  0  0  0  0  0  0  0  0  0  0
   14.8175   -9.9593    0.0000 O   0  0  0  0  0  0  0  0  0  0  0  0
   15.0997   -9.1841    0.0000 C   0  0  0  0  0  0  0  0  0  0  0  0
   13.7229  -10.8778    0.0000 C   0  0  0  0  0  0  0  0  0  0  0  0
   14.2532  -11.5098    0.0000 O   0  0  0  0  0  0  0  0  0  0  0  0
   13.9710  -12.2851    0.0000 C   0  0  0  0  0  0  0  0  0  0  0  0
   12.9104  -11.0211    0.0000 C   0  0  0  0  0  0  0  0  0  0  0  0
    0.1226  -12.8998    0.0000 C   0  0  0  0  0  0  0  0  0  0  0  0
   -0.3146  -13.5994    0.0000 C   0  0  0  0  0  0  0  0  0  0  0  0
    0.0727  -14.3279    0.0000 O   0  0  0  0  0  0  0  0  0  0  0  0
   -0.3645  -15.0275    0.0000 C   0  0  0  0  0  0  0  0  0  0  0  0
  1  2  1  0  0  0  0
  2  3  1  0  0  0  0
  3  4  4  0  0  0  0
  4  5  4  0  0  0  0
  5  6  4  0  0  0  0
  6  7  1  0  0  0  0
  7  8  1  0  0  0  0
  8  9  1  0  0  0  0
  9 10  4  0  0  0  0
 10 11  4  0  0  0  0
 11 12  1  0  0  0  0
 12 13  1  0  0  0  0
 11 14  4  0  0  0  0
 14 15  1  0  0  0  0
 15 16  1  0  0  0  0
 14 17  4  0  0  0  0
 17 18  4  0  0  0  0
  9 18  4  0  0  0  0
 18 19  1  0  0  0  0
 19 20  1  0  0  0  0
 20 21  1  0  0  0  0
  8 21  1  0  0  0  0
 21 22  1  0  0  0  0
 21 23  1  0  0  0  0
 23 24  1  0  0  0  0
 24 25  1  0  0  0  0
 25 26  2  0  0  0  0
 25 27  1  0  0  0  0
 27 28  1  0  0  0  0
 28 29  1  0  0  0  0
 29 30  1  0  0  0  0
 30 31  1  0  0  0  0
 31 32  1  0  0  0  0
 32 33  1  0  0  0  0
 33 34  1  0  0  0  0
 34 35  2  0  0  0  0
 34 36  1  0  0  0  0
 36 37  1  0  0  0  0
 37 38  1  0  0  0  0
 38 39  1  0  0  0  0
 38 40  1  0  0  0  0
 40 41  1  0  0  0  0
 41 42  1  0  0  0  0
 42 43  4  0  0  0  0
 43 44  4  0  0  0  0
 44 45  1  0  0  0  0
 45 46  1  0  0  0  0
 44 47  4  0  0  0  0
 47 48  1  0  0  0  0
 48 49  1  0  0  0  0
 47 50  4  0  0  0  0
 50 51  4  0  0  0  0
 42 51  4  0  0  0  0
 51 52  1  0  0  0  0
 38 52  1  0  0  0  0
 52 53  1  0  0  0  0
 53 54  1  0  0  0  0
 54 55  4  0  0  0  0
 55 56  4  0  0  0  0
 56 57  4  0  0  0  0
 57 58  1  0  0  0  0
 58 59  1  0  0  0  0
 57 60  4  0  0  0  0
 60 61  1  0  0  0  0
 61 62  1  0  0  0  0
 60 63  4  0  0  0  0
 54 63  4  0  0  0  0
  6 64  4  0  0  0  0
 64 65  4  0  0  0  0
  3 65  4  0  0  0  0
 65 66  1  0  0  0  0
 66 67  1  0  0  0  0
M  CHG  2  21   1  38   1
M  END

> <ChembankId>
3221455

> <SMILES>
COc1ccc(CC2c3cc(OC)c(OC)cc3CC[N+]2(C)CCC(=O)OCCCCCOC(=O)CC[N+]4(C)CCc5cc(OC)c(OC)cc5C4Cc6ccc(OC)c(OC)c6)cc1OC

> <InChI>
1/C53H72N2O12/c1-54(22-18-38-32-48(62-7)50(64-9)34-40(38)42(54)28-36-14-16-44(58-3)46(30-36)60-5)24-20-52(56)66-26-12-11-13-27-67-53(57)21-25-55(2)23-19-39-33-49(63-8)51(65-10)35-41(39)43(55)29-37-15-17-45(59-4)47(31-37)61-6/h14-17,30-35,42-43H,11-13,18-29H2,1-10H3/q+2

$$$$
907228
  Marvin  11101114192D          

 23 23  0  0  0  0            999 V2000
   -5.0013   -6.1875    0.0000 C   0  0  0  0  0  0  0  0  0  0  0  0
   -4.2868   -6.6000    0.0000 C   0  0  0  0  0  0  0  0  0  0  0  0
   -3.5724   -6.1875    0.0000 C   0  0  0  0  0  0  0  0  0  0  0  0
   -2.8579   -6.6000    0.0000 C   0  0  0  0  0  0  0  0  0  0  0  0
   -2.1434   -6.1875    0.0000 C   0  0  0  0  0  0  0  0  0  0  0  0
   -1.4289   -6.6000    0.0000 C   0  0  0  0  0  0  0  0  0  0  0  0
   -0.7145   -6.1875    0.0000 C   0  0  0  0  0  0  0  0  0  0  0  0
    0.0000   -6.6000    0.0000 N   0  3  0  0  0  0  0  0  0  0  0  0
   -0.4125   -7.3145    0.0000 C   0  0  0  0  0  0  0  0  0  0  0  0
    0.0000   -8.0289    0.0000 C   0  0  0  0  0  0  0  0  0  0  0  0
    0.4125   -5.8855    0.0000 C   0  0  0  0  0  0  0  0  0  0  0  0
    1.2375   -5.8855    0.0000 C   0  0  0  0  0  0  0  0  0  0  0  0
    0.7145   -7.0125    0.0000 C   0  0  0  0  0  0  0  0  0  0  0  0
    1.4289   -6.6000    0.0000 C   0  0  0  0  0  0  0  0  0  0  0  0
    2.1434   -7.0125    0.0000 C   0  0  0  0  0  0  0  0  0  0  0  0
    2.8579   -6.6000    0.0000 C   0  0  0  0  0  0  0  0  0  0  0  0
    3.5724   -7.0125    0.0000 C   0  0  0  0  0  0  0  0  0  0  0  0
    4.2868   -6.6000    0.0000 C   0  0  0  0  0  0  0  0  0  0  0  0
    5.0013   -7.0125    0.0000 C   0  0  0  0  0  0  0  0  0  0  0  0
    5.0013   -7.8375    0.0000 C   0  0  0  0  0  0  0  0  0  0  0  0
    5.7158   -8.2500    0.0000 Cl  0  0  0  0  0  0  0  0  0  0  0  0
    4.2868   -8.2500    0.0000 C   0  0  0  0  0  0  0  0  0  0  0  0
    3.5724   -7.8375    0.0000 C   0  0  0  0  0  0  0  0  0  0  0  0
  1  2  1  0  0  0  0
  2  3  1  0  0  0  0
  3  4  1  0  0  0  0
  4  5  1  0  0  0  0
  5  6  1  0  0  0  0
  6  7  1  0  0  0  0
  7  8  1  0  0  0  0
  8  9  1  0  0  0  0
  9 10  1  0  0  0  0
  8 11  1  0  0  0  0
 11 12  1  0  0  0  0
  8 13  1  0  0  0  0
 13 14  1  0  0  0  0
 14 15  1  0  0  0  0
 15 16  1  0  0  0  0
 16 17  1  0  0  0  0
 17 18  4  0  0  0  0
 18 19  4  0  0  0  0
 19 20  4  0  0  0  0
 20 21  1  0  0  0  0
 20 22  4  0  0  0  0
 22 23  4  0  0  0  0
 17 23  4  0  0  0  0
M  CHG  1   8   1
M  END

> <ChembankId>
907228

> <SMILES>
CCCCCCC[N+](CC)(CC)CCCCc1ccc(Cl)cc1

> <InChI>
1/C21H37ClN/c1-4-7-8-9-11-18-23(5-2,6-3)19-12-10-13-20-14-16-21(22)17-15-20/h14-17H,4-13,18-19H2,1-3H3/q+1

$$$$
907192
  Marvin  11101114192D          

 13 13  0  0  0  0            999 V2000
    2.8579    3.3000    0.0000 C   0  0  0  0  0  0  0  0  0  0  0  0
    2.1434    2.8875    0.0000 C   0  0  0  0  0  0  0  0  0  0  0  0
    2.1434    2.0625    0.0000 N   0  3  0  0  0  0  0  0  0  0  0  0
    1.3184    2.0625    0.0000 C   0  0  0  0  0  0  0  0  0  0  0  0
    2.9684    2.0625    0.0000 C   0  0  0  0  0  0  0  0  0  0  0  0
    2.1434    1.2375    0.0000 C   0  0  0  0  0  0  0  0  0  0  0  0
    1.4289    0.8250    0.0000 C   0  0  0  0  0  0  0  0  0  0  0  0
    1.4289   -0.0000    0.0000 C   0  0  0  0  0  0  0  0  0  0  0  0
    0.7145   -0.4125    0.0000 C   0  0  0  0  0  0  0  0  0  0  0  0
    0.0000    0.0000    0.0000 C   0  0  0  0  0  0  0  0  0  0  0  0
    0.0000    0.8250    0.0000 C   0  0  0  0  0  0  0  0  0  0  0  0
    0.7145    1.2375    0.0000 C   0  0  0  0  0  0  0  0  0  0  0  0
    0.7145    2.0625    0.0000 Br  0  0  0  0  0  0  0  0  0  0  0  0
  1  2  1  0  0  0  0
  2  3  1  0  0  0  0
  3  4  1  0  0  0  0
  3  5  1  0  0  0  0
  3  6  1  0  0  0  0
  6  7  1  0  0  0  0
  7  8  4  0  0  0  0
  8  9  4  0  0  0  0
  9 10  4  0  0  0  0
 10 11  4  0  0  0  0
 11 12  4  0  0  0  0
  7 12  4  0  0  0  0
 12 13  1  0  0  0  0
M  CHG  1   3   1
M  END

> <ChembankId>
907192

> <SMILES>
CC[N+](C)(C)Cc1ccccc1Br

> <InChI>
1/C11H17BrN/c1-4-13(2,3)9-10-7-5-6-8-11(10)12/h5-8H,4,9H2,1-3H3/q+1

$$$$
2106166
  Marvin  11101114192D          

 44 45  0  0  1  0            999 V2000
   -5.7655    5.6207    0.0000 C   0  0  0  0  0  0  0  0  0  0  0  0
   -5.8900    4.8051    0.0000 O   0  0  0  0  0  0  0  0  0  0  0  0
   -5.2460    4.2895    0.0000 C   0  0  2  0  0  0  0  0  0  0  0  0
   -4.4774    4.5894    0.0000 C   0  0  0  0  0  0  0  0  0  0  0  0
   -3.7488    4.0563    0.0000 C   0  0  2  0  0  0  0  0  0  0  0  0
   -3.9823    3.2650    0.0000 C   0  0  0  0  0  0  0  0  0  0  0  0
   -2.9252    4.1041    0.0000 C   0  0  0  0  0  0  0  0  0  0  0  0
   -2.6253    3.3355    0.0000 C   0  0  0  0  0  0  0  0  0  0  0  0
   -1.9108    2.9230    0.0000 C   0  0  0  0  0  0  0  0  0  0  0  0
   -1.1964    3.3355    0.0000 N   0  0  0  0  0  0  0  0  0  0  0  0
   -0.4819    2.9230    0.0000 C   0  0  0  0  0  0  0  0  0  0  0  0
    0.2326    3.3355    0.0000 C   0  0  0  0  0  0  0  0  0  0  0  0
    0.9471    2.9230    0.0000 N   0  0  0  0  0  0  0  0  0  0  0  0
    1.6615    3.3355    0.0000 C   0  0  0  0  0  0  0  0  0  0  0  0
    0.9471    2.0980    0.0000 C   0  0  0  0  0  0  0  0  0  0  0  0
   -1.9108    2.0980    0.0000 C   0  0  0  0  0  0  0  0  0  0  0  0
   -1.1964    1.6855    0.0000 O   0  0  0  0  0  0  0  0  0  0  0  0
   -2.6253    1.6855    0.0000 C   0  0  0  0  0  0  0  0  0  0  0  0
   -3.4385    1.9271    0.0000 C   0  0  0  0  0  0  0  0  0  0  0  0
   -4.2070    1.6272    0.0000 N   0  0  0  0  0  0  0  0  0  0  0  0
   -4.3315    0.8116    0.0000 C   0  0  0  0  0  0  0  0  0  0  0  0
   -3.6875    0.2960    0.0000 O   0  0  0  0  0  0  0  0  0  0  0  0
   -5.1001    0.5117    0.0000 C   0  0  0  0  0  0  0  0  0  0  0  0
   -5.2246   -0.3038    0.0000 C   0  0  0  0  0  0  0  0  0  0  0  0
   -5.9932   -0.6038    0.0000 C   0  0  0  0  0  0  0  0  0  0  0  0
   -6.6372   -0.0881    0.0000 C   0  0  0  0  0  0  0  0  0  0  0  0
   -6.5127    0.7274    0.0000 C   0  0  1  0  0  0  0  0  0  0  0  0
   -7.2812    0.4275    0.0000 O   0  0  0  0  0  0  0  0  0  0  0  0
   -7.4057   -0.3881    0.0000 C   0  0  0  0  0  0  0  0  0  0  0  0
   -7.1567    1.2430    0.0000 C   0  0  2  0  0  0  0  0  0  0  0  0
   -7.9252    0.9431    0.0000 O   0  0  0  0  0  0  0  0  0  0  0  0
   -8.5692    1.4587    0.0000 C   0  0  0  0  0  0  0  0  0  0  0  0
   -9.3378    1.1588    0.0000 O   0  0  0  0  0  0  0  0  0  0  0  0
   -8.4447    2.2743    0.0000 N   0  0  0  0  0  0  0  0  0  0  0  0
   -7.0321    2.0586    0.0000 C   0  0  0  0  0  0  0  0  0  0  0  0
   -6.2636    2.3585    0.0000 C   0  0  0  0  0  0  0  0  0  0  0  0
   -6.1391    3.1740    0.0000 C   0  0  1  0  0  0  0  0  0  0  0  0
   -6.7831    3.6897    0.0000 C   0  0  0  0  0  0  0  0  0  0  0  0
   -5.3705    3.4740    0.0000 C   0  0  2  0  0  0  0  0  0  0  0  0
   -4.7265    2.9583    0.0000 O   0  0  0  0  0  0  0  0  0  0  0  0
   -7.6762    2.5742    0.0000 C   0  0  0  0  0  0  0  0  0  0  0  0
   -5.7441    1.0273    0.0000 C   0  0  0  0  0  0  0  0  0  0  0  0
   -3.2636    2.8128    0.0000 C   0  0  0  0  0  0  0  0  0  0  0  0
   -4.0677    2.9974    0.0000 O   0  0  0  0  0  0  0  0  0  0  0  0
  1  2  1  0  0  0  0
  3  2  1  6  0  0  0
  3  4  1  0  0  0  0
  4  5  1  0  0  0  0
  5  6  1  1  0  0  0
  5  7  1  0  0  0  0
  7  8  1  0  0  0  0
  8  9  2  0  0  0  0
  9 10  1  0  0  0  0
 10 11  1  0  0  0  0
 11 12  1  0  0  0  0
 12 13  1  0  0  0  0
 13 14  1  0  0  0  0
 13 15  1  0  0  0  0
  9 16  1  0  0  0  0
 16 17  2  0  0  0  0
 16 18  1  0  0  0  0
 18 19  2  0  0  0  0
 19 20  1  0  0  0  0
 20 21  1  0  0  0  0
 21 22  2  0  0  0  0
 21 23  1  0  0  0  0
 23 24  2  0  0  0  0
 24 25  1  0  0  0  0
 25 26  2  0  0  0  0
 26 27  1  0  0  0  0
 27 28  1  6  0  0  0
 28 29  1  0  0  0  0
 27 30  1  0  0  0  0
 30 31  1  6  0  0  0
 31 32  1  0  0  0  0
 32 33  2  0  0  0  0
 32 34  1  0  0  0  0
 30 35  1  0  0  0  0
 35 36  2  0  0  0  0
 36 37  1  0  0  0  0
 37 38  1  1  0  0  0
 37 39  1  0  0  0  0
  3 39  1  0  0  0  0
 39 40  1  1  0  0  0
 35 41  1  0  0  0  0
 23 42  1  0  0  0  0
 19 43  1  0  0  0  0
  8 43  1  0  0  0  0
 43 44  2  0  0  0  0
M  END

> <ChembankId>
2106166

> <SMILES>
CO[C@@H]1C[C@H](C)CC2=C(NCCN(C)C)C(=O)C=C(NC(=O)/C(=C/C=C\[C@@H](OC)[C@H](OC(=O)N)/C(=C/[C@@H](C)[C@@H]1O)/C)/C)C2=O

> <InChI>
1/C32H48N4O8/c1-18-14-22-27(34-12-13-36(5)6)24(37)17-23(29(22)39)35-31(40)19(2)10-9-11-25(42-7)30(44-32(33)41)21(4)16-20(3)28(38)26(15-18)43-8/h9-11,16-18,20,25-26,28,30,34,38H,12-15H2,1-8H3,(H2,33,41)(H,35,40)/b11-9-,19-10+,21-16+/t18-,20+,25+,26-,28+,30+/m1/s1

$$$$
1399
  Marvin  11101114192D          

 18 19  0  0  1  0            999 V2000
    1.4289   -0.0000    0.0000 C   0  0  0  0  0  0  0  0  0  0  0  0
    0.7145   -0.4125    0.0000 C   0  0  2  0  0  0  0  0  0  0  0  0
    0.0000    0.0000    0.0000 C   0  0  0  0  0  0  0  0  0  0  0  0
    0.0000    0.8250    0.0000 O   0  0  0  0  0  0  0  0  0  0  0  0
   -0.7145   -0.4125    0.0000 O   0  0  0  0  0  0  0  0  0  0  0  0
    0.7145   -1.2375    0.0000 C   0  0  0  0  0  0  0  0  0  0  0  0
    1.4289   -1.6500    0.0000 C   0  0  0  0  0  0  0  0  0  0  0  0
    1.4289   -2.4750    0.0000 C   0  0  0  0  0  0  0  0  0  0  0  0
    0.7145   -2.8875    0.0000 C   0  0  0  0  0  0  0  0  0  0  0  0
    0.0000   -2.4750    0.0000 C   0  0  0  0  0  0  0  0  0  0  0  0
   -0.7145   -2.8875    0.0000 F   0  0  0  0  0  0  0  0  0  0  0  0
    0.0000   -1.6500    0.0000 C   0  0  0  0  0  0  0  0  0  0  0  0
    0.7145   -3.7125    0.0000 C   0  0  0  0  0  0  0  0  0  0  0  0
    1.4289   -4.1250    0.0000 C   0  0  0  0  0  0  0  0  0  0  0  0
    1.4289   -4.9500    0.0000 C   0  0  0  0  0  0  0  0  0  0  0  0
    0.7145   -5.3625    0.0000 C   0  0  0  0  0  0  0  0  0  0  0  0
   -0.0000   -4.9500    0.0000 C   0  0  0  0  0  0  0  0  0  0  0  0
    0.0000   -4.1250    0.0000 C   0  0  0  0  0  0  0  0  0  0  0  0
  2  1  1  1  0  0  0
  2  3  1  0  0  0  0
  3  4  2  0  0  0  0
  3  5  1  0  0  0  0
  2  6  1  0  0  0  0
  6  7  4  0  0  0  0
  7  8  4  0  0  0  0
  8  9  4  0  0  0  0
  9 10  4  0  0  0  0
 10 11  1  0  0  0  0
 10 12  4  0  0  0  0
  6 12  4  0  0  0  0
  9 13  1  0  0  0  0
 13 14  4  0  0  0  0
 14 15  4  0  0  0  0
 15 16  4  0  0  0  0
 16 17  4  0  0  0  0
 17 18  4  0  0  0  0
 13 18  4  0  0  0  0
M  END

> <ChembankId>
1399

> <SMILES>
C[C@H](C(=O)O)c1ccc(c(F)c1)c2ccccc2

> <InChI>
1/C15H13FO2/c1-10(15(17)18)12-7-8-13(14(16)9-12)11-5-3-2-4-6-11/h2-10H,1H3,(H,17,18)/t10-/m0/s1

$$$$
907153
  Marvin  11101114192D          

 11 12  0  0  0  0            999 V2000
    4.0668    2.3479    0.0000 N   0  0  0  0  0  0  0  0  0  0  0  0
    3.3523    1.9354    0.0000 C   0  0  0  0  0  0  0  0  0  0  0  0
    3.3523    1.1104    0.0000 N   0  0  0  0  0  0  0  0  0  0  0  0
    2.6378    0.6979    0.0000 C   0  0  0  0  0  0  0  0  0  0  0  0
    2.6378   -0.1271    0.0000 S   0  0  0  0  0  0  0  0  0  0  0  0
    1.9233    1.1104    0.0000 C   0  0  0  0  0  0  0  0  0  0  0  0
    1.1387    0.8555    0.0000 N   0  0  0  0  0  0  0  0  0  0  0  0
    0.6538    1.5229    0.0000 C   0  0  0  0  0  0  0  0  0  0  0  0
    1.1387    2.1904    0.0000 N   0  0  0  0  0  0  0  0  0  0  0  0
    1.9233    1.9354    0.0000 C   0  0  0  0  0  0  0  0  0  0  0  0
    2.6378    2.3479    0.0000 N   0  0  0  0  0  0  0  0  0  0  0  0
  1  2  1  0  0  0  0
  2  3  4  0  0  0  0
  3  4  4  0  0  0  0
  4  5  2  0  0  0  0
  4  6  4  0  0  0  0
  6  7  4  0  0  0  0
  7  8  4  0  0  0  0
  8  9  4  0  0  0  0
  9 10  4  0  0  0  0
  6 10  4  0  0  0  0
 10 11  4  0  0  0  0
  2 11  4  0  0  0  0
M  STY  2   1 DAT   2 DAT
M  SAL   1  1   7
M  SDT   1 MRV_IMPLICIT_H                                        
M  SDD   1     0.0000    0.0000    DR    ALL  0       0  
M  SED   1 IMPL_H1
M  SAL   2  1  11
M  SDT   2 MRV_IMPLICIT_H                                        
M  SDD   2     0.0000    0.0000    DR    ALL  0       0  
M  SED   2 IMPL_H1
M  END

> <ChembankId>
907153

> <SMILES>
Nc1nc(=S)c2[nH]cnc2[nH]1

> <InChI>
1/C5H5N5S/c6-5-9-3-2(4(11)10-5)7-1-8-3/h1H,(H4,6,7,8,9,10,11)

$$$$
880
  Marvin  11101114192D          

 25 27  0  0  1  0            999 V2000
    2.5600    0.7927    0.0000 C   0  0  0  0  0  0  0  0  0  0  0  0
    1.9469    1.3448    0.0000 C   0  0  0  0  0  0  0  0  0  0  0  0
    2.5600    1.8968    0.0000 C   0  0  0  0  0  0  0  0  0  0  0  0
    1.4620    0.6773    0.0000 S   0  0  0  0  0  0  0  0  0  0  0  0
    0.6773    0.9323    0.0000 C   0  0  2  0  0  0  0  0  0  0  0  0
   -0.1477    0.9323    0.0000 C   0  0  2  0  0  0  0  0  0  0  0  0
   -0.7310    0.3489    0.0000 N   0  0  0  0  0  0  0  0  0  0  0  0
   -1.5279    0.5624    0.0000 C   0  0  0  0  0  0  0  0  0  0  0  0
   -1.7414    1.3593    0.0000 O   0  0  0  0  0  0  0  0  0  0  0  0
   -2.1113   -0.0209    0.0000 C   0  0  0  0  0  0  0  0  0  0  0  0
   -1.8977   -0.8178    0.0000 N   0  0  0  0  0  0  0  0  0  0  0  0
   -2.9082    0.1926    0.0000 C   0  0  0  0  0  0  0  0  0  0  0  0
   -3.4915   -0.3908    0.0000 C   0  0  0  0  0  0  0  0  0  0  0  0
   -4.2884   -0.1772    0.0000 C   0  0  0  0  0  0  0  0  0  0  0  0
   -4.5019    0.6197    0.0000 C   0  0  0  0  0  0  0  0  0  0  0  0
   -5.2988    0.8332    0.0000 O   0  0  0  0  0  0  0  0  0  0  0  0
   -3.9186    1.2030    0.0000 C   0  0  0  0  0  0  0  0  0  0  0  0
   -3.1217    0.9895    0.0000 C   0  0  0  0  0  0  0  0  0  0  0  0
   -0.1477    1.7573    0.0000 C   0  0  0  0  0  0  0  0  0  0  0  0
   -0.7310    2.3406    0.0000 O   0  0  0  0  0  0  0  0  0  0  0  0
    0.6773    1.7573    0.0000 N   0  0  0  0  0  0  0  0  0  0  0  0
    1.4620    2.0122    0.0000 C   0  0  1  0  0  0  0  0  0  0  0  0
    1.7169    2.7968    0.0000 C   0  0  0  0  0  0  0  0  0  0  0  0
    1.1649    3.4099    0.0000 O   0  0  0  0  0  0  0  0  0  0  0  0
    2.5239    2.9684    0.0000 O   0  0  0  0  0  0  0  0  0  0  0  0
  1  2  1  0  0  0  0
  2  3  1  0  0  0  0
  2  4  1  0  0  0  0
  4  5  1  0  0  0  0
  5  6  1  0  0  0  0
  6  7  1  6  0  0  0
  7  8  1  0  0  0  0
  8  9  2  0  0  0  0
  8 10  1  0  0  0  0
 10 11  1  0  0  0  0
 10 12  1  0  0  0  0
 12 13  4  0  0  0  0
 13 14  4  0  0  0  0
 14 15  4  0  0  0  0
 15 16  1  0  0  0  0
 15 17  4  0  0  0  0
 17 18  4  0  0  0  0
 12 18  4  0  0  0  0
  6 19  1  0  0  0  0
 19 20  2  0  0  0  0
 19 21  1  0  0  0  0
  5 21  1  6  0  0  0
 21 22  1  0  0  0  0
  2 22  1  0  0  0  0
 22 23  1  1  0  0  0
 23 24  2  0  0  0  0
 23 25  1  0  0  0  0
M  END

> <ChembankId>
880

> <SMILES>
CC1(C)S[C@@H]2[C@H](NC(=O)C(N)c3ccc(O)cc3)C(=O)N2[C@H]1C(=O)O

> <InChI>
1/C16H19N3O5S/c1-16(2)11(15(23)24)19-13(22)10(14(19)25-16)18-12(21)9(17)7-3-5-8(20)6-4-7/h3-6,9-11,14,20H,17H2,1-2H3,(H,18,21)(H,23,24)/t9-,10-,11-,14+/m0/s1

$$$$
3198963
  Marvin  11101114192D          

 30 35  0  0  1  0            999 V2000
    7.2076   -4.2801    0.0000 C   0  0  0  0  0  0  0  0  0  0  0  0
    7.3319   -3.4645    0.0000 C   0  0  1  0  0  0  0  0  0  0  0  0
    8.0648   -3.0857    0.0000 C   0  0  0  0  0  0  0  0  0  0  0  0
    7.9311   -2.2716    0.0000 C   0  0  2  0  0  0  0  0  0  0  0  0
    8.6640   -1.8929    0.0000 C   0  0  0  0  0  0  0  0  0  0  0  0
    9.2507   -2.4728    0.0000 C   0  0  1  0  0  0  0  0  0  0  0  0
   10.0743   -2.4249    0.0000 C   0  0  2  0  0  0  0  0  0  0  0  0
   10.4446   -1.6877    0.0000 C   0  0  0  0  0  0  0  0  0  0  0  0
   11.2682   -1.6397    0.0000 C   0  0  0  0  0  0  0  0  0  0  0  0
   11.7215   -2.3290    0.0000 C   0  0  1  0  0  0  0  0  0  0  0  0
   12.5451   -2.2811    0.0000 C   0  0  0  0  0  0  0  0  0  0  0  0
   12.9984   -2.9704    0.0000 C   0  0  1  0  0  0  0  0  0  0  0  0
   13.8221   -2.9224    0.0000 O   0  0  0  0  0  0  0  0  0  0  0  0
   12.6282   -3.7076    0.0000 C   0  0  0  0  0  0  0  0  0  0  0  0
   11.8046   -3.7555    0.0000 C   0  0  0  0  0  0  0  0  0  0  0  0
   11.3512   -3.0662    0.0000 C   0  0  1  0  0  0  0  0  0  0  0  0
   10.9810   -3.8035    0.0000 C   0  0  0  0  0  0  0  0  0  0  0  0
   10.5276   -3.1142    0.0000 C   0  0  1  0  0  0  0  0  0  0  0  0
   10.1573   -3.8514    0.0000 C   0  0  0  0  0  0  0  0  0  0  0  0
    9.3337   -3.8994    0.0000 C   0  0  0  0  0  0  0  0  0  0  0  0
    8.8804   -3.2101    0.0000 C   0  0  2  0  0  0  0  0  0  0  0  0
    8.4351   -3.9046    0.0000 C   0  0  0  0  0  0  0  0  0  0  0  0
    7.1155   -2.1473    0.0000 O   0  0  0  0  0  0  0  0  0  0  0  0
    6.7452   -2.8845    0.0000 C   0  0  1  0  0  0  0  0  0  0  0  0
    6.4540   -3.6564    0.0000 C   0  0  0  0  0  0  0  0  0  0  0  0
    5.6399   -3.7902    0.0000 C   0  0  0  0  0  0  0  0  0  0  0  0
    5.1170   -3.1521    0.0000 C   0  0  2  0  0  0  0  0  0  0  0  0
    4.3030   -3.2858    0.0000 C   0  0  0  0  0  0  0  0  0  0  0  0
    5.4082   -2.3802    0.0000 C   0  0  0  0  0  0  0  0  0  0  0  0
    6.2223   -2.2464    0.0000 N   0  0  0  0  0  0  0  0  0  0  0  0
  2  1  1  6  0  0  0
  2  3  1  0  0  0  0
  3  4  1  0  0  0  0
  4  5  1  1  0  0  0
  6  5  1  1  0  0  0
  6  7  1  0  0  0  0
  7  8  1  6  0  0  0
  8  9  1  0  0  0  0
  9 10  1  0  0  0  0
 10 11  1  1  0  0  0
 11 12  1  0  0  0  0
 12 13  1  1  0  0  0
 12 14  1  0  0  0  0
 14 15  1  0  0  0  0
 15 16  1  0  0  0  0
 10 16  1  0  0  0  0
 16 17  1  1  0  0  0
 16 18  1  0  0  0  0
  7 18  1  0  0  0  0
 18 19  1  1  0  0  0
 19 20  1  0  0  0  0
 20 21  1  0  0  0  0
  3 21  1  0  0  0  0
  6 21  1  0  0  0  0
 21 22  1  1  0  0  0
  4 23  1  0  0  0  0
 24 23  1  6  0  0  0
  2 24  1  0  0  0  0
 24 25  1  0  0  0  0
 25 26  1  0  0  0  0
 26 27  1  0  0  0  0
 27 28  1  6  0  0  0
 27 29  1  0  0  0  0
 29 30  1  0  0  0  0
 24 30  1  0  0  0  0
M  END

> <ChembankId>
3198963

> <SMILES>
C[C@H]1[C@H]2[C@H](C[C@H]3[C@@H]4CC[C@H]5C[C@@H](O)CC[C@]5(C)[C@H]4CC[C@]23C)O[C@]61CC[C@H](C)CN6

> <InChI>
1/C27H45NO2/c1-16-7-12-27(28-15-16)17(2)24-23(30-27)14-22-20-6-5-18-13-19(29)8-10-25(18,3)21(20)9-11-26(22,24)4/h16-24,28-29H,5-15H2,1-4H3

$$$$
2141061
  Marvin  11101114192D          

 27 29  0  0  1  0            999 V2000
   -0.7145   -1.2375    0.0000 C   0  0  0  0  0  0  0  0  0  0  0  0
    0.0000   -0.8250    0.0000 C   0  0  0  0  0  0  0  0  0  0  0  0
    0.0000    0.0000    0.0000 C   0  0  0  0  0  0  0  0  0  0  0  0
    0.7145    0.4125    0.0000 C   0  0  0  0  0  0  0  0  0  0  0  0
    0.7145    1.2375    0.0000 N   0  0  0  0  0  0  0  0  0  0  0  0
    1.4289    1.6500    0.0000 C   0  0  0  0  0  0  0  0  0  0  0  0
    1.4289    2.4750    0.0000 C   0  0  0  0  0  0  0  0  0  0  0  0
    0.7145    2.8875    0.0000 O   0  0  0  0  0  0  0  0  0  0  0  0
    2.1434    2.8875    0.0000 N   0  0  0  0  0  0  0  0  0  0  0  0
    2.8579    2.4750    0.0000 C   0  0  0  0  0  0  0  0  0  0  0  0
    3.5724    2.8875    0.0000 O   0  0  0  0  0  0  0  0  0  0  0  0
    2.8579    1.6500    0.0000 N   0  0  0  0  0  0  0  0  0  0  0  0
    2.1434    1.2375    0.0000 C   0  0  0  0  0  0  0  0  0  0  0  0
    2.1434    0.4125    0.0000 N   0  0  0  0  0  0  0  0  0  0  0  0
    2.8579    0.0000    0.0000 C   0  0  0  0  0  0  0  0  0  0  0  0
    3.5724    0.4125    0.0000 C   0  0  1  0  0  0  0  0  0  0  0  0
    3.5724    1.2375    0.0000 O   0  0  0  0  0  0  0  0  0  0  0  0
    4.2868    0.0000    0.0000 C   0  0  1  0  0  0  0  0  0  0  0  0
    4.2868   -0.8250    0.0000 O   0  0  0  0  0  0  0  0  0  0  0  0
    5.0013    0.4125    0.0000 C   0  0  1  0  0  0  0  0  0  0  0  0
    5.0013    1.2375    0.0000 O   0  0  0  0  0  0  0  0  0  0  0  0
    5.7158    0.0000    0.0000 C   0  0  0  0  0  0  0  0  0  0  0  0
    6.4302    0.4125    0.0000 O   0  0  0  0  0  0  0  0  0  0  0  0
    1.4289    0.0000    0.0000 C   0  0  0  0  0  0  0  0  0  0  0  0
    1.4289   -0.8250    0.0000 C   0  0  0  0  0  0  0  0  0  0  0  0
    0.7145   -1.2375    0.0000 C   0  0  0  0  0  0  0  0  0  0  0  0
    0.7145   -2.0625    0.0000 C   0  0  0  0  0  0  0  0  0  0  0  0
  1  2  1  0  0  0  0
  2  3  4  0  0  0  0
  3  4  4  0  0  0  0
  4  5  4  0  0  0  0
  5  6  4  0  0  0  0
  6  7  4  0  0  0  0
  7  8  2  0  0  0  0
  7  9  4  0  0  0  0
  9 10  4  0  0  0  0
 10 11  2  0  0  0  0
 10 12  4  0  0  0  0
 12 13  4  0  0  0  0
  6 13  4  0  0  0  0
 13 14  4  0  0  0  0
 14 15  1  0  0  0  0
 15 16  1  0  0  0  0
 16 17  1  1  0  0  0
 16 18  1  0  0  0  0
 18 19  1  6  0  0  0
 18 20  1  0  0  0  0
 20 21  1  1  0  0  0
 20 22  1  0  0  0  0
 22 23  1  0  0  0  0
 14 24  4  0  0  0  0
  4 24  4  0  0  0  0
 24 25  4  0  0  0  0
 25 26  4  0  0  0  0
  2 26  4  0  0  0  0
 26 27  1  0  0  0  0
M  STY  1   1 DAT
M  SAL   1  1   9
M  SDT   1 MRV_IMPLICIT_H                                        
M  SDD   1     0.0000    0.0000    DR    ALL  0       0  
M  SED   1 IMPL_H1
M  END

> <ChembankId>
2141061

> <SMILES>
Cc1cc2nc3c(=O)[nH]c(=O)nc3n(C[C@@H](O)[C@@H](O)[C@@H](O)CO)c2cc1C

> <InChI>
1/C17H20N4O6/c1-7-3-9-10(4-8(7)2)21(5-11(23)14(25)12(24)6-22)15-13(18-9)16(26)20-17(27)19-15/h3-4,11-12,14,22-25H,5-6H2,1-2H3,(H,20,26,27)

$$$$
688
  Marvin  11101114192D          

 59 62  0  0  1  0            999 V2000
   -0.2520    0.7924    0.0000 C   0  0  0  0  0  0  0  0  0  0  0  0
    0.4625    0.3799    0.0000 O   0  0  0  0  0  0  0  0  0  0  0  0
    1.1770    0.7924    0.0000 C   0  0  1  0  0  0  0  0  0  0  0  0
    0.4625    1.2049    0.0000 C   0  0  2  0  0  0  0  0  0  0  0  0
   -0.3580    1.2911    0.0000 O   0  0  0  0  0  0  0  0  0  0  0  0
    0.4625    2.0299    0.0000 C   0  0  0  0  0  0  0  0  0  0  0  0
    1.1770    2.4424    0.0000 C   0  0  0  0  0  0  0  0  0  0  0  0
    1.1770    3.2674    0.0000 O   0  0  0  0  0  0  0  0  0  0  0  0
    1.8914    2.0299    0.0000 O   0  0  0  0  0  0  0  0  0  0  0  0
    2.6059    2.4424    0.0000 C   0  0  1  0  0  0  0  0  0  0  0  0
    2.6059    3.2674    0.0000 C   0  0  0  0  0  0  0  0  0  0  0  0
    3.3204    2.0299    0.0000 C   0  0  0  0  0  0  0  0  0  0  0  0
    4.0349    2.4424    0.0000 C   0  0  0  0  0  0  0  0  0  0  0  0
    4.7493    2.0299    0.0000 C   0  0  0  0  0  0  0  0  0  0  0  0
    4.7493    1.2049    0.0000 C   0  0  0  0  0  0  0  0  0  0  0  0
    4.0349    0.7924    0.0000 C   0  0  0  0  0  0  0  0  0  0  0  0
    4.0349   -0.0326    0.0000 C   0  0  2  0  0  0  0  0  0  0  0  0
    4.7493   -0.4451    0.0000 O   0  0  0  0  0  0  0  0  0  0  0  0
    4.7493   -1.2701    0.0000 C   0  0  1  0  0  0  0  0  0  0  0  0
    4.0349   -1.6826    0.0000 C   0  0  0  0  0  0  0  0  0  0  0  0
    4.0349   -2.5076    0.0000 C   0  0  0  0  0  0  0  0  0  0  0  0
    4.7493   -2.9201    0.0000 C   0  0  1  0  0  0  0  0  0  0  0  0
    5.4638   -2.5076    0.0000 C   0  0  1  0  0  0  0  0  0  0  0  0
    6.1783   -2.9201    0.0000 C   0  0  0  0  0  0  0  0  0  0  0  0
    5.4638   -1.6826    0.0000 O   0  0  0  0  0  0  0  0  0  0  0  0
    4.7493   -3.7451    0.0000 N   0  0  0  0  0  0  0  0  0  0  0  0
    5.4638   -4.1576    0.0000 C   0  0  0  0  0  0  0  0  0  0  0  0
    4.0349   -4.1576    0.0000 C   0  0  0  0  0  0  0  0  0  0  0  0
    3.3204   -0.4451    0.0000 C   0  0  2  0  0  0  0  0  0  0  0  0
    3.3204   -1.2701    0.0000 C   0  0  0  0  0  0  0  0  0  0  0  0
    2.6059   -0.0326    0.0000 C   0  0  0  0  0  0  0  0  0  0  0  0
    1.8914   -0.4451    0.0000 C   0  0  2  0  0  0  0  0  0  0  0  0
    1.8914   -1.2701    0.0000 C   0  0  0  0  0  0  0  0  0  0  0  0
    1.1770   -1.6826    0.0000 C   0  0  0  0  0  0  0  0  0  0  0  0
    1.1770   -2.5076    0.0000 O   0  0  0  0  0  0  0  0  0  0  0  0
    1.1770   -0.0326    0.0000 C   0  0  2  0  0  0  0  0  0  0  0  0
    0.3700   -0.2042    0.0000 O   0  0  0  0  0  0  0  0  0  0  0  0
    0.1151   -0.9888    0.0000 C   0  0  2  0  0  0  0  0  0  0  0  0
    0.6671   -1.6019    0.0000 O   0  0  0  0  0  0  0  0  0  0  0  0
    0.4122   -2.3865    0.0000 C   0  0  2  0  0  0  0  0  0  0  0  0
    0.9642   -2.9996    0.0000 C   0  0  0  0  0  0  0  0  0  0  0  0
   -0.3948   -2.5580    0.0000 C   0  0  1  0  0  0  0  0  0  0  0  0
   -0.6498   -3.3426    0.0000 O   0  0  0  0  0  0  0  0  0  0  0  0
   -0.0977   -3.9557    0.0000 C   0  0  1  0  0  0  0  0  0  0  0  0
   -0.3527   -4.7404    0.0000 C   0  0  0  0  0  0  0  0  0  0  0  0
    0.1994   -5.3535    0.0000 C   0  0  1  0  0  0  0  0  0  0  0  0
   -0.5003   -5.7906    0.0000 C   0  0  0  0  0  0  0  0  0  0  0  0
    0.5084   -6.1184    0.0000 O   0  0  0  0  0  0  0  0  0  0  0  0
    1.0063   -5.1819    0.0000 C   0  0  2  0  0  0  0  0  0  0  0  0
    1.5584   -5.7950    0.0000 O   0  0  0  0  0  0  0  0  0  0  0  0
    1.2613   -4.3973    0.0000 C   0  0  2  0  0  0  0  0  0  0  0  0
    2.0683   -4.2258    0.0000 C   0  0  0  0  0  0  0  0  0  0  0  0
    0.7093   -3.7842    0.0000 O   0  0  0  0  0  0  0  0  0  0  0  0
   -0.9468   -1.9449    0.0000 C   0  0  1  0  0  0  0  0  0  0  0  0
   -0.6919   -1.1603    0.0000 C   0  0  1  0  0  0  0  0  0  0  0  0
   -1.2439   -0.5472    0.0000 O   0  0  0  0  0  0  0  0  0  0  0  0
   -1.7538   -2.1165    0.0000 N   0  0  0  0  0  0  0  0  0  0  0  0
   -2.3059   -1.5034    0.0000 C   0  0  0  0  0  0  0  0  0  0  0  0
   -2.0088   -2.9011    0.0000 C   0  0  0  0  0  0  0  0  0  0  0  0
  1  2  1  0  0  0  0
  3  2  1  6  0  0  0
  3  4  1  0  0  0  0
  4  5  1  6  0  0  0
  4  6  1  0  0  0  0
  6  7  1  0  0  0  0
  7  8  2  0  0  0  0
  7  9  1  0  0  0  0
  9 10  1  0  0  0  0
 10 11  1  1  0  0  0
 10 12  1  0  0  0  0
 13 12  1  4  0  0  0
 13 14  2  0  0  0  0
 15 14  1  4  0  0  0
 15 16  2  0  0  0  0
 16 17  1  0  0  0  0
 17 18  1  6  0  0  0
 19 18  1  6  0  0  0
 19 20  1  0  0  0  0
 20 21  1  0  0  0  0
 21 22  1  0  0  0  0
 22 23  1  0  0  0  0
 23 24  1  6  0  0  0
 23 25  1  0  0  0  0
 19 25  1  0  0  0  0
 22 26  1  1  0  0  0
 26 27  1  0  0  0  0
 26 28  1  0  0  0  0
 17 29  1  0  0  0  0
 29 30  1  6  0  0  0
 29 31  1  0  0  0  0
 31 32  1  0  0  0  0
 32 33  1  6  0  0  0
 33 34  1  0  0  0  0
 34 35  2  0  0  0  0
 32 36  1  0  0  0  0
  3 36  1  0  0  0  0
 36 37  1  6  0  0  0
 38 37  1  6  0  0  0
 38 39  1  0  0  0  0
 39 40  1  0  0  0  0
 40 41  1  6  0  0  0
 40 42  1  0  0  0  0
 42 43  1  1  0  0  0
 44 43  1  6  0  0  0
 44 45  1  0  0  0  0
 45 46  1  0  0  0  0
 46 47  1  1  0  0  0
 46 48  1  6  0  0  0
 46 49  1  0  0  0  0
 49 50  1  1  0  0  0
 49 51  1  0  0  0  0
 51 52  1  1  0  0  0
 51 53  1  0  0  0  0
 44 53  1  0  0  0  0
 42 54  1  0  0  0  0
 54 55  1  0  0  0  0
 38 55  1  0  0  0  0
 55 56  1  1  0  0  0
 54 57  1  6  0  0  0
 57 58  1  0  0  0  0
 57 59  1  0  0  0  0
M  END

> <ChembankId>
688

> <SMILES>
CO[C@H]1[C@H](O)CC(=O)O[C@@H](C)CC=CC=C[C@H](O[C@H]2CC[C@@H]([C@@H](C)O2)N(C)C)[C@H](C)C[C@H](CC=O)[C@@H]1O[C@@H]3O[C@H](C)[C@@H](O[C@H]4C[C@@](C)(O)[C@H](O)[C@H](C)O4)[C@@H]([C@H]3O)N(C)C

> <InChI>
1/C43H74N2O14/c1-24-21-29(19-20-46)39(59-42-37(49)36(45(9)10)38(27(4)56-42)58-35-23-43(6,51)41(50)28(5)55-35)40(52-11)31(47)22-33(48)53-25(2)15-13-12-14-16-32(24)57-34-18-17-30(44(7)8)26(3)54-34/h12-14,16,20,24-32,34-42,47,49-51H,15,17-19,21-23H2,1-11H3/t24-,25+,26-,27+,28+,29+,30-,31-,32-,34-,35-,36+,37+,38+,39-,40-,41-,42+,43+/m0/s1

$$$$
1392
  Marvin  11101114192D          

 33 35  0  0  1  0            999 V2000
   -2.8579    0.8250    0.0000 C   0  0  0  0  0  0  0  0  0  0  0  0
   -2.8579   -0.0000    0.0000 N   0  0  0  0  0  0  0  0  0  0  0  0
   -3.5724   -0.4125    0.0000 C   0  0  0  0  0  0  0  0  0  0  0  0
   -4.2868    0.0000    0.0000 C   0  0  0  0  0  0  0  0  0  0  0  0
   -3.5724   -1.2375    0.0000 C   0  0  2  0  0  0  0  0  0  0  0  0
   -2.8579   -1.6500    0.0000 C   0  0  0  0  0  0  0  0  0  0  0  0
   -2.8579   -2.4750    0.0000 C   0  0  0  0  0  0  0  0  0  0  0  0
   -3.5724   -2.8875    0.0000 C   0  0  1  0  0  0  0  0  0  0  0  0
   -3.5724   -3.7125    0.0000 N   0  0  0  0  0  0  0  0  0  0  0  0
   -4.2868   -2.4750    0.0000 C   0  0  1  0  0  0  0  0  0  0  0  0
   -5.0013   -2.8875    0.0000 O   0  0  0  0  0  0  0  0  0  0  0  0
   -5.7158   -2.4750    0.0000 C   0  0  2  0  0  0  0  0  0  0  0  0
   -5.7158   -1.6500    0.0000 C   0  0  1  0  0  0  0  0  0  0  0  0
   -5.0013   -1.2375    0.0000 N   0  0  0  0  0  0  0  0  0  0  0  0
   -6.4302   -1.2375    0.0000 C   0  0  0  0  0  0  0  0  0  0  0  0
   -7.1447   -1.6500    0.0000 C   0  0  1  0  0  0  0  0  0  0  0  0
   -7.8592   -1.2375    0.0000 N   0  0  0  0  0  0  0  0  0  0  0  0
   -7.1447   -2.4750    0.0000 C   0  0  2  0  0  0  0  0  0  0  0  0
   -7.8592   -2.8875    0.0000 O   0  0  0  0  0  0  0  0  0  0  0  0
   -7.8592   -3.7125    0.0000 C   0  0  2  0  0  0  0  0  0  0  0  0
   -7.1447   -4.1250    0.0000 O   0  0  0  0  0  0  0  0  0  0  0  0
   -7.1447   -4.9500    0.0000 C   0  0  0  0  0  0  0  0  0  0  0  0
   -7.8592   -5.3625    0.0000 C   0  0  2  0  0  0  0  0  0  0  0  0
   -7.3289   -5.9945    0.0000 C   0  0  0  0  0  0  0  0  0  0  0  0
   -8.3895   -5.9945    0.0000 O   0  0  0  0  0  0  0  0  0  0  0  0
   -8.5737   -4.9500    0.0000 C   0  0  2  0  0  0  0  0  0  0  0  0
   -9.2881   -5.3625    0.0000 N   0  0  0  0  0  0  0  0  0  0  0  0
  -10.0026   -4.9500    0.0000 C   0  0  0  0  0  0  0  0  0  0  0  0
   -8.5737   -4.1250    0.0000 C   0  0  1  0  0  0  0  0  0  0  0  0
   -9.2881   -3.7125    0.0000 O   0  0  0  0  0  0  0  0  0  0  0  0
   -6.4302   -2.8875    0.0000 C   0  0  1  0  0  0  0  0  0  0  0  0
   -6.4302   -3.7125    0.0000 O   0  0  0  0  0  0  0  0  0  0  0  0
   -4.2868   -1.6500    0.0000 O   0  0  0  0  0  0  0  0  0  0  0  0
  1  2  1  0  0  0  0
  2  3  1  0  0  0  0
  3  4  1  0  0  0  0
  5  3  1  6  0  0  0
  5  6  1  0  0  0  0
  6  7  1  0  0  0  0
  7  8  1  0  0  0  0
  8  9  1  1  0  0  0
  8 10  1  0  0  0  0
 10 11  1  1  0  0  0
 12 11  1  1  0  0  0
 12 13  1  0  0  0  0
 13 14  1  6  0  0  0
 13 15  1  0  0  0  0
 15 16  1  0  0  0  0
 16 17  1  6  0  0  0
 16 18  1  0  0  0  0
 18 19  1  1  0  0  0
 20 19  1  6  0  0  0
 20 21  1  0  0  0  0
 21 22  1  0  0  0  0
 22 23  1  0  0  0  0
 23 24  1  1  0  0  0
 23 25  1  6  0  0  0
 23 26  1  0  0  0  0
 26 27  1  6  0  0  0
 27 28  1  0  0  0  0
 26 29  1  0  0  0  0
 20 29  1  0  0  0  0
 29 30  1  1  0  0  0
 18 31  1  0  0  0  0
 12 31  1  0  0  0  0
 31 32  1  6  0  0  0
 10 33  1  0  0  0  0
  5 33  1  0  0  0  0
M  END

> <ChembankId>
1392

> <SMILES>
CNC(C)[C@@H]1CC[C@@H](N)[C@@H](O[C@@H]2[C@@H](N)C[C@@H](N)[C@H](O[C@@H]3OC[C@](C)(O)[C@H](NC)[C@H]3O)[C@H]2O)O1

> <InChI>
1/C21H43N5O7/c1-9(25-3)13-6-5-10(22)19(31-13)32-16-11(23)7-12(24)17(14(16)27)33-20-15(28)18(26-4)21(2,29)8-30-20/h9-20,25-29H,5-8,22-24H2,1-4H3/t9-,10+,11+,12+,13+,14-,15+,16+,17-,18-,19-,20-,21-/m0/s1

$$$$
2327
  Marvin  11101114192D          

114122  0  0  0  0            999 V2000
   20.7228    0.1031    0.0000 C   0  0  0  0  0  0  0  0  0  0  0  0
   20.8971    0.8995    0.0000 C   0  0  0  0  0  0  0  0  0  0  0  0
   20.5648    1.6969    0.0000 C   0  0  0  0  0  0  0  0  0  0  0  0
   19.7571    1.4123    0.0000 C   0  0  0  0  0  0  0  0  0  0  0  0
   20.8501    2.4939    0.0000 C   0  0  0  0  0  0  0  0  0  0  0  0
   21.6340    2.7509    0.0000 N   0  0  0  0  0  0  0  0  0  0  0  0
   22.2486    2.2005    0.0000 C   0  0  0  0  0  0  0  0  0  0  0  0
   22.0791    1.3930    0.0000 C   0  0  0  0  0  0  0  0  0  0  0  0
   22.6936    0.8426    0.0000 C   0  0  0  0  0  0  0  0  0  0  0  0
   23.4776    1.0995    0.0000 C   0  0  0  0  0  0  0  0  0  0  0  0
   24.0921    0.5491    0.0000 C   0  0  0  0  0  0  0  0  0  0  0  0
   24.8761    0.8061    0.0000 C   0  0  0  0  0  0  0  0  0  0  0  0
   25.0455    1.6135    0.0000 C   0  0  0  0  0  0  0  0  0  0  0  0
   24.4310    2.1639    0.0000 N   0  0  0  0  0  0  0  0  0  0  0  0
   23.6470    1.9070    0.0000 C   0  0  0  0  0  0  0  0  0  0  0  0
   23.0325    2.4574    0.0000 C   0  0  0  0  0  0  0  0  0  0  0  0
   23.4153    3.1576    0.0000 O   0  0  0  0  0  0  0  0  0  0  0  0
   25.8295    1.8704    0.0000 C   0  0  0  0  0  0  0  0  0  0  0  0
   26.4216    2.6078    0.0000 O   0  0  0  0  0  0  0  0  0  0  0  0
   26.4440    1.3200    0.0000 O   0  0  0  0  0  0  0  0  0  0  0  0
   27.2279    1.5769    0.0000 C   0  0  0  0  0  0  0  0  0  0  0  0
   26.9937    2.4943    0.0000 C   0  0  0  0  0  0  0  0  0  0  0  0
   27.8425    1.0265    0.0000 C   0  0  0  0  0  0  0  0  0  0  0  0
   28.6264    1.2834    0.0000 N   0  0  0  0  0  0  0  0  0  0  0  0
   29.2409    0.7330    0.0000 C   0  0  0  0  0  0  0  0  0  0  0  0
   30.0249    0.9900    0.0000 C   0  0  0  0  0  0  0  0  0  0  0  0
   30.2806    1.7283    0.0000 O   0  0  0  0  0  0  0  0  0  0  0  0
   30.6394    0.4395    0.0000 C   0  0  0  0  0  0  0  0  0  0  0  0
   30.7278   -0.3808    0.0000 C   0  0  0  0  0  0  0  0  0  0  0  0
   31.5352   -0.5502    0.0000 S   0  0  0  0  0  0  0  0  0  0  0  0
   32.0379    0.1460    0.0000 C   0  0  0  0  0  0  0  0  0  0  0  0
   31.4234    0.6965    0.0000 N   0  0  0  0  0  0  0  0  0  0  0  0
   32.8219    0.4030    0.0000 C   0  0  0  0  0  0  0  0  0  0  0  0
   33.4364   -0.1475    0.0000 N   0  0  0  0  0  0  0  0  0  0  0  0
   34.2203    0.1095    0.0000 C   0  0  0  0  0  0  0  0  0  0  0  0
   34.9101   -0.3815    0.0000 O   0  0  0  0  0  0  0  0  0  0  0  0
   34.3898    0.9169    0.0000 C   0  0  0  0  0  0  0  0  0  0  0  0
   35.0560    1.4035    0.0000 C   0  0  0  0  0  0  0  0  0  0  0  0
   34.7990    2.1875    0.0000 S   0  0  0  0  0  0  0  0  0  0  0  0
   33.9447    2.2748    0.0000 C   0  0  0  0  0  0  0  0  0  0  0  0
   33.7753    1.4673    0.0000 N   0  0  0  0  0  0  0  0  0  0  0  0
   33.3302    2.8252    0.0000 C   0  0  0  0  0  0  0  0  0  0  0  0
   33.8309    3.6000    0.0000 C   0  0  0  0  0  0  0  0  0  0  0  0
   34.2928    4.1804    0.0000 C   0  0  0  0  0  0  0  0  0  0  0  0
   32.5462    2.5682    0.0000 N   0  0  0  0  0  0  0  0  0  0  0  0
   31.9317    3.1187    0.0000 C   0  0  0  0  0  0  0  0  0  0  0  0
   31.8160    3.9956    0.0000 O   0  0  0  0  0  0  0  0  0  0  0  0
   31.1478    2.8617    0.0000 C   0  0  0  0  0  0  0  0  0  0  0  0
   30.5332    3.4122    0.0000 N   0  0  0  0  0  0  0  0  0  0  0  0
   29.7493    3.1552    0.0000 C   0  0  0  0  0  0  0  0  0  0  0  0
   30.1489    2.4794    0.0000 O   0  0  0  0  0  0  0  0  0  0  0  0
   29.1348    3.7057    0.0000 C   0  0  0  0  0  0  0  0  0  0  0  0
   29.0464    4.5259    0.0000 C   0  0  0  0  0  0  0  0  0  0  0  0
   28.2390    4.6954    0.0000 S   0  0  0  0  0  0  0  0  0  0  0  0
   27.7363    3.9992    0.0000 C   0  0  0  0  0  0  0  0  0  0  0  0
   28.3508    3.4487    0.0000 N   0  0  0  0  0  0  0  0  0  0  0  0
   26.9523    3.7422    0.0000 C   0  0  0  0  0  0  0  0  0  0  0  0
   26.1684    3.4852    0.0000 C   0  0  0  0  0  0  0  0  0  0  0  0
   25.9989    2.6778    0.0000 C   0  0  0  0  0  0  0  0  0  0  0  0
   26.6134    2.1274    0.0000 C   0  0  0  0  0  0  0  0  0  0  0  0
   27.3974    2.3843    0.0000 N   0  0  0  0  0  0  0  0  0  0  0  0
   27.5668    3.1918    0.0000 C   0  0  0  0  0  0  0  0  0  0  0  0
   39.0303   -1.3214    0.0000 C   0  0  0  0  0  0  0  0  0  0  0  0
   39.5839   -1.9331    0.0000 N   0  0  0  0  0  0  0  0  0  0  0  0
   39.1732   -2.6487    0.0000 C   0  0  0  0  0  0  0  0  0  0  0  0
   38.3658   -2.4792    0.0000 C   0  0  0  0  0  0  0  0  0  0  0  0
   38.2775   -1.6589    0.0000 S   0  0  0  0  0  0  0  0  0  0  0  0
   39.5548   -3.4120    0.0000 C   0  0  0  0  0  0  0  0  0  0  0  0
   40.3966   -3.4899    0.0000 O   0  0  0  0  0  0  0  0  0  0  0  0
   39.0421   -4.0855    0.0000 N   0  0  0  0  0  0  0  0  0  0  0  0
   39.3479   -4.8604    0.0000 C   0  0  0  0  0  0  0  0  0  0  0  0
   40.1644   -4.9786    0.0000 C   0  0  0  0  0  0  0  0  0  0  0  0
   38.8479   -5.4949    0.0000 C   0  0  0  0  0  0  0  0  0  0  0  0
   38.0264   -5.4193    0.0000 O   0  0  0  0  0  0  0  0  0  0  0  0
   39.2183   -6.2987    0.0000 N   0  0  0  0  0  0  0  0  0  0  0  0
   38.7210   -6.9218    0.0000 C   0  0  0  0  0  0  0  0  0  0  0  0
   37.8992   -6.8500    0.0000 C   0  0  0  0  0  0  0  0  0  0  0  0
   39.0927   -7.7188    0.0000 C   0  0  0  0  0  0  0  0  0  0  0  0
   38.6196   -8.3946    0.0000 O   0  0  0  0  0  0  0  0  0  0  0  0
   39.9146   -7.7907    0.0000 N   0  0  0  0  0  0  0  0  0  0  0  0
   26.3378    4.2927    0.0000 N   0  0  0  0  0  0  0  0  0  0  0  0
   25.5539    4.0357    0.0000 C   0  0  0  0  0  0  0  0  0  0  0  0
   26.0849    4.7394    0.0000 C   0  0  0  0  0  0  0  0  0  0  0  0
   24.9393    4.5862    0.0000 C   0  0  0  0  0  0  0  0  0  0  0  0
   25.4819    5.2676    0.0000 C   0  0  0  0  0  0  0  0  0  0  0  0
   24.1554    4.3292    0.0000 N   0  0  0  0  0  0  0  0  0  0  0  0
   23.5409    4.8796    0.0000 C   0  0  0  0  0  0  0  0  0  0  0  0
   24.0245    5.5704    0.0000 O   0  0  0  0  0  0  0  0  0  0  0  0
   22.7569    4.6227    0.0000 C   0  0  0  0  0  0  0  0  0  0  0  0
   23.2246    3.9739    0.0000 C   0  0  0  0  0  0  0  0  0  0  0  0
   22.1424    5.1731    0.0000 N   0  0  0  0  0  0  0  0  0  0  0  0
   21.3584    4.9162    0.0000 C   0  0  0  0  0  0  0  0  0  0  0  0
   21.1890    4.1088    0.0000 C   0  0  0  0  0  0  0  0  0  0  0  0
   22.0027    3.9074    0.0000 C   0  0  0  0  0  0  0  0  0  0  0  0
   20.4050    3.8518    0.0000 N   0  0  0  0  0  0  0  0  0  0  0  0
   20.2356    3.0444    0.0000 C   0  0  0  0  0  0  0  0  0  0  0  0
   20.9965    3.2962    0.0000 O   0  0  0  0  0  0  0  0  0  0  0  0
   32.0376    2.6396    0.0000 C   0  0  0  0  0  0  0  0  0  0  0  0
   32.6413    1.9828    0.0000 C   0  0  0  0  0  0  0  0  0  0  0  0
   32.4934    3.6128    0.0000 O   0  0  0  0  0  0  0  0  0  0  0  0
   32.8707   -0.5765    0.0000 C   0  0  0  0  0  0  0  0  0  0  0  0
   32.8488   -1.4649    0.0000 C   0  0  0  0  0  0  0  0  0  0  0  0
   33.5377   -1.1716    0.0000 O   0  0  0  0  0  0  0  0  0  0  0  0
   32.0414   -0.8492    0.0000 C   0  0  0  0  0  0  0  0  0  0  0  0
   31.6772   -1.6450    0.0000 C   0  0  0  0  0  0  0  0  0  0  0  0
   31.3586   -0.0726    0.0000 O   0  0  0  0  0  0  0  0  0  0  0  0
   27.6730    0.2191    0.0000 C   0  0  0  0  0  0  0  0  0  0  0  0
   28.2266   -0.3926    0.0000 N   0  0  0  0  0  0  0  0  0  0  0  0
   27.8160   -1.1081    0.0000 C   0  0  0  0  0  0  0  0  0  0  0  0
   27.0086   -0.9387    0.0000 C   0  0  0  0  0  0  0  0  0  0  0  0
   26.9202   -0.1184    0.0000 S   0  0  0  0  0  0  0  0  0  0  0  0
   23.9163   -0.3137    0.0000 C   0  0  0  0  0  0  0  0  0  0  0  0
   23.1826   -0.7041    0.0000 C   0  0  0  0  0  0  0  0  0  0  0  0
   24.5199   -0.9310    0.0000 O   0  0  0  0  0  0  0  0  0  0  0  0
  1  2  1  0  0  0  0
  2  3  1  0  0  0  0
  3  4  1  0  0  0  0
  3  5  1  0  0  0  0
  5  6  1  0  0  0  0
  6  7  1  0  0  0  0
  7  8  1  0  0  0  0
  8  9  2  0  0  0  0
  9 10  1  0  0  0  0
 10 11  4  0  0  0  0
 11 12  4  0  0  0  0
 12 13  4  0  0  0  0
 13 14  4  0  0  0  0
 14 15  4  0  0  0  0
 10 15  4  0  0  0  0
 15 16  1  0  0  0  0
  7 16  1  0  0  0  0
 16 17  1  0  0  0  0
 13 18  1  0  0  0  0
 18 19  2  0  0  0  0
 18 20  1  0  0  0  0
 20 21  1  0  0  0  0
 21 22  1  0  0  0  0
 21 23  1  0  0  0  0
 23 24  1  0  0  0  0
 24 25  1  0  0  0  0
 25 26  1  0  0  0  0
 26 27  2  0  0  0  0
 26 28  1  0  0  0  0
 28 29  4  0  0  0  0
 29 30  4  0  0  0  0
 30 31  4  0  0  0  0
 31 32  4  0  0  0  0
 28 32  4  0  0  0  0
 31 33  1  0  0  0  0
 33 34  1  0  0  0  0
 34 35  1  0  0  0  0
 35 36  2  0  0  0  0
 35 37  1  0  0  0  0
 37 38  4  0  0  0  0
 38 39  4  0  0  0  0
 39 40  4  0  0  0  0
 40 41  4  0  0  0  0
 37 41  4  0  0  0  0
 40 42  1  0  0  0  0
 42 43  2  0  0  0  0
 43 44  1  0  0  0  0
 42 45  1  0  0  0  0
 45 46  1  0  0  0  0
 46 47  2  0  0  0  0
 46 48  1  0  0  0  0
 48 49  1  0  0  0  0
 49 50  1  0  0  0  0
 50 51  2  0  0  0  0
 50 52  1  0  0  0  0
 52 53  4  0  0  0  0
 53 54  4  0  0  0  0
 54 55  4  0  0  0  0
 55 56  4  0  0  0  0
 52 56  4  0  0  0  0
 55 57  1  0  0  0  0
 57 58  1  0  0  0  0
 58 59  1  0  0  0  0
 59 60  1  0  0  0  0
 60 61  2  0  0  0  0
 61 62  1  0  0  0  0
 57 62  1  0  0  0  0
 60 63  1  0  0  0  0
 63 64  4  0  0  0  0
 64 65  4  0  0  0  0
 65 66  4  0  0  0  0
 66 67  4  0  0  0  0
 63 67  4  0  0  0  0
 65 68  1  0  0  0  0
 68 69  2  0  0  0  0
 68 70  1  0  0  0  0
 70 71  1  0  0  0  0
 71 72  2  0  0  0  0
 71 73  1  0  0  0  0
 73 74  2  0  0  0  0
 73 75  1  0  0  0  0
 75 76  1  0  0  0  0
 76 77  2  0  0  0  0
 76 78  1  0  0  0  0
 78 79  2  0  0  0  0
 78 80  1  0  0  0  0
 57 81  1  0  0  0  0
 81 82  1  0  0  0  0
 82 83  2  0  0  0  0
 82 84  1  0  0  0  0
 84 85  1  0  0  0  0
 84 86  1  0  0  0  0
 86 87  1  0  0  0  0
 87 88  2  0  0  0  0
 87 89  1  0  0  0  0
 89 90  2  0  0  0  0
 89 91  1  0  0  0  0
 91 92  1  0  0  0  0
 92 93  1  0  0  0  0
 93 94  1  0  0  0  0
 93 95  1  0  0  0  0
 95 96  1  0  0  0  0
  5 96  1  0  0  0  0
 96 97  2  0  0  0  0
 48 98  1  0  0  0  0
 98 99  1  0  0  0  0
 98100  1  0  0  0  0
 33101  1  0  0  0  0
101102  1  0  0  0  0
101103  1  0  0  0  0
101104  1  0  0  0  0
104105  1  0  0  0  0
104106  1  0  0  0  0
 23107  1  0  0  0  0
107108  4  0  0  0  0
108109  4  0  0  0  0
109110  4  0  0  0  0
110111  4  0  0  0  0
107111  4  0  0  0  0
 11112  1  0  0  0  0
112113  1  0  0  0  0
112114  1  0  0  0  0
M  END

> <ChembankId>
2327

> <SMILES>
CCC(C)C1NC2C=Cc3c(cc(nc3C2O)C(=O)OC(C)C(NCC(=O)c4csc(n4)C(NC(=O)c5csc(n5)/C(=C\C)/NC(=O)C(NC(=O)c6csc(n6)C7(CCC(=NC7)c8nc(cs8)C(=O)NC(=C)C(=O)NC(=C)C(=O)N)NC(=C)C(C)NC(=O)C(=C)NCC(C)NC1=O)C(C)O)C(C)(O)C(C)O)c9nccs9)C(C)O

> <InChI>
1/C74H91N19O16S5/c1-15-31(3)53-65(105)80-32(4)24-77-36(8)60(100)81-33(5)34(6)93-74(20-19-46(79-30-74)68-89-49(27-112-68)62(102)83-37(9)61(101)82-35(7)59(75)99)72-90-51(29-114-72)63(103)91-54(39(11)95)66(106)86-44(16-2)67-88-50(28-111-67)64(104)92-58(73(14,108)41(13)96)70-87-48(26-113-70)52(97)25-78-55(69-76-21-22-110-69)40(12)109-71(107)47-23-43(38(10)94)42-17-18-45(84-53)57(98)56(42)85-47/h16-18,21-23,26-29,31-33,38-41,45,53-55,57-58,77-78,84,93-96,98,108H,6-9,15,19-20,24-25,30H2,1-5,10-14H3,(H2,75,99)(H,80,105)(H,81,100)(H,82,101)(H,83,102)(H,86,106)(H,91,103)(H,92,104)/b44-16+/t31-,32-,33-,38+,39+,40+,41+,45+,53+,54+,55-,57-,58-,73-,74+/m1/s1

$$$$
1943
  Marvin  11101114192D          

 38 41  0  0  1  0            999 V2000
    0.0000    0.8250    0.0000 C   0  0  0  0  0  0  0  0  0  0  0  0
    0.0000    0.0000    0.0000 N   0  0  0  0  0  0  0  0  0  0  0  0
    0.7145   -0.4125    0.0000 C   0  0  1  0  0  0  0  0  0  0  0  0
    1.4289    0.0000    0.0000 C   0  0  1  0  0  0  0  0  0  0  0  0
    1.4289    0.8250    0.0000 O   0  0  0  0  0  0  0  0  0  0  0  0
    2.1434   -0.4125    0.0000 C   0  0  1  0  0  0  0  0  0  0  0  0
    2.8579    0.0000    0.0000 O   0  0  0  0  0  0  0  0  0  0  0  0
    3.5724   -0.4125    0.0000 C   0  0  2  0  0  0  0  0  0  0  0  0
    4.2868   -0.0000    0.0000 O   0  0  0  0  0  0  0  0  0  0  0  0
    4.2868    0.8250    0.0000 C   0  0  2  0  0  0  0  0  0  0  0  0
    3.5724    1.2375    0.0000 C   0  0  1  0  0  0  0  0  0  0  0  0
    2.8579    0.8250    0.0000 N   0  0  0  0  0  0  0  0  0  0  0  0
    3.5724    2.0625    0.0000 C   0  0  0  0  0  0  0  0  0  0  0  0
    4.2868    2.4750    0.0000 C   0  0  1  0  0  0  0  0  0  0  0  0
    4.2868    3.3000    0.0000 N   0  0  0  0  0  0  0  0  0  0  0  0
    5.0013    2.0625    0.0000 C   0  0  2  0  0  0  0  0  0  0  0  0
    5.7158    2.4750    0.0000 O   0  0  0  0  0  0  0  0  0  0  0  0
    5.0013    1.2375    0.0000 C   0  0  1  0  0  0  0  0  0  0  0  0
    5.7158    0.8250    0.0000 O   0  0  0  0  0  0  0  0  0  0  0  0
    3.5724   -1.2375    0.0000 C   0  0  2  0  0  0  0  0  0  0  0  0
    4.2868   -1.6500    0.0000 N   0  0  0  0  0  0  0  0  0  0  0  0
    2.8579   -1.6500    0.0000 C   0  0  0  0  0  0  0  0  0  0  0  0
    2.1434   -1.2375    0.0000 C   0  0  2  0  0  0  0  0  0  0  0  0
    1.4289   -1.6500    0.0000 O   0  0  0  0  0  0  0  0  0  0  0  0
    0.7145   -1.2375    0.0000 C   0  0  2  0  0  0  0  0  0  0  0  0
    0.0000   -1.6500    0.0000 O   0  0  0  0  0  0  0  0  0  0  0  0
    0.0000   -2.4750    0.0000 C   0  0  1  0  0  0  0  0  0  0  0  0
   -0.8125   -2.3317    0.0000 C   0  0  0  0  0  0  0  0  0  0  0  0
    0.8125   -2.3317    0.0000 O   0  0  0  0  0  0  0  0  0  0  0  0
    1.3428   -2.9637    0.0000 C   0  0  2  0  0  0  0  0  0  0  0  0
    2.1552   -2.8205    0.0000 C   0  0  0  0  0  0  0  0  0  0  0  0
    2.4374   -2.0452    0.0000 O   0  0  0  0  0  0  0  0  0  0  0  0
    1.0606   -3.7390    0.0000 C   0  0  1  0  0  0  0  0  0  0  0  0
    1.5909   -4.3710    0.0000 N   0  0  0  0  0  0  0  0  0  0  0  0
    0.2481   -3.8822    0.0000 C   0  0  2  0  0  0  0  0  0  0  0  0
   -0.0340   -4.6575    0.0000 O   0  0  0  0  0  0  0  0  0  0  0  0
   -0.2822   -3.2502    0.0000 C   0  0  1  0  0  0  0  0  0  0  0  0
   -1.0946   -3.3935    0.0000 O   0  0  0  0  0  0  0  0  0  0  0  0
  1  2  1  0  0  0  0
  3  2  1  1  0  0  0
  3  4  1  0  0  0  0
  4  5  1  1  0  0  0
  4  6  1  0  0  0  0
  6  7  1  1  0  0  0
  7  8  1  0  0  0  0
  8  9  1  6  0  0  0
 10  9  1  6  0  0  0
 10 11  1  0  0  0  0
 11 12  1  1  0  0  0
 11 13  1  0  0  0  0
 13 14  1  0  0  0  0
 14 15  1  1  0  0  0
 14 16  1  0  0  0  0
 16 17  1  6  0  0  0
 16 18  1  0  0  0  0
 10 18  1  0  0  0  0
 18 19  1  1  0  0  0
  8 20  1  0  0  0  0
 20 21  1  6  0  0  0
 20 22  1  0  0  0  0
 23 22  1  6  0  0  0
  6 23  1  0  0  0  0
 23 24  1  0  0  0  0
 24 25  1  0  0  0  0
  3 25  1  0  0  0  0
 25 26  1  6  0  0  0
 27 26  1  1  0  0  0
 27 28  1  6  0  0  0
 27 29  1  0  0  0  0
 29 30  1  0  0  0  0
 30 31  1  6  0  0  0
 31 32  1  0  0  0  0
 30 33  1  0  0  0  0
 33 34  1  1  0  0  0
 33 35  1  0  0  0  0
 35 36  1  6  0  0  0
 35 37  1  0  0  0  0
 27 37  1  0  0  0  0
 37 38  1  1  0  0  0
M  END

> <ChembankId>
1943

> <SMILES>
CN[C@H]1[C@@H](O)[C@H]2O[C@H](O[C@@H]3[C@@H](N)C[C@@H](N)[C@H](O)[C@H]3O)[C@H](N)C[C@@H]2O[C@@H]1O[C@@]4(C)O[C@H](CO)[C@@H](N)[C@H](O)[C@H]4O

> <InChI>
1/C22H43N5O11/c1-22(19(33)14(30)11(26)10(5-28)37-22)38-21-12(27-2)15(31)18-9(34-21)4-8(25)20(36-18)35-17-7(24)3-6(23)13(29)16(17)32/h6-21,27-33H,3-5,23-26H2,1-2H3/t6-,7-,8+,9+,10+,11+,12+,13+,14-,15+,16-,17-,18+,19-,20-,21-,22-/m1/s1

$$$$
1320
  Marvin  11101114192D          

 32 36  0  0  1  0            999 V2000
    4.7321   -3.5894    0.0000 C   0  0  0  0  0  0  0  0  0  0  0  0
    4.5888   -2.7770    0.0000 C   0  0  1  0  0  0  0  0  0  0  0  0
    4.1763   -2.0625    0.0000 C   0  0  0  0  0  0  0  0  0  0  0  0
    4.5888   -1.3480    0.0000 C   0  0  0  0  0  0  0  0  0  0  0  0
    5.4138   -1.3480    0.0000 C   0  0  2  0  0  0  0  0  0  0  0  0
    5.0013   -0.6336    0.0000 C   0  0  0  0  0  0  0  0  0  0  0  0
    5.8263   -0.6336    0.0000 C   0  0  0  0  0  0  0  0  0  0  0  0
    6.6513   -0.6336    0.0000 C   0  0  0  0  0  0  0  0  0  0  0  0
    7.0638   -1.3480    0.0000 C   0  0  2  0  0  0  0  0  0  0  0  0
    7.4763   -0.6336    0.0000 C   0  0  0  0  0  0  0  0  0  0  0  0
    7.8888   -1.3480    0.0000 C   0  0  0  0  0  0  0  0  0  0  0  0
    8.3013   -0.6336    0.0000 C   0  0  0  0  0  0  0  0  0  0  0  0
    9.1263   -0.6336    0.0000 C   0  0  0  0  0  0  0  0  0  0  0  0
    9.5388   -1.3480    0.0000 C   0  0  0  0  0  0  0  0  0  0  0  0
   10.3638   -1.3480    0.0000 C   0  0  0  0  0  0  0  0  0  0  0  0
   10.7763   -2.0625    0.0000 C   0  0  0  0  0  0  0  0  0  0  0  0
   11.6013   -2.0625    0.0000 O   0  0  0  0  0  0  0  0  0  0  0  0
   10.3638   -2.7770    0.0000 C   0  0  0  0  0  0  0  0  0  0  0  0
   10.7763   -3.4914    0.0000 O   0  0  0  0  0  0  0  0  0  0  0  0
    9.5388   -2.7770    0.0000 C   0  0  0  0  0  0  0  0  0  0  0  0
    9.1263   -2.0625    0.0000 C   0  0  0  0  0  0  0  0  0  0  0  0
    8.3013   -2.0625    0.0000 C   0  0  1  0  0  0  0  0  0  0  0  0
    8.7138   -2.7770    0.0000 C   0  0  0  0  0  0  0  0  0  0  0  0
    7.8888   -2.7770    0.0000 C   0  0  0  0  0  0  0  0  0  0  0  0
    7.0638   -2.7770    0.0000 C   0  0  0  0  0  0  0  0  0  0  0  0
    6.6513   -2.0625    0.0000 C   0  0  2  0  0  0  0  0  0  0  0  0
    6.2388   -2.7770    0.0000 C   0  0  0  0  0  0  0  0  0  0  0  0
    5.8263   -2.0625    0.0000 C   0  0  2  0  0  0  0  0  0  0  0  0
    5.4138   -2.7770    0.0000 C   0  0  0  0  0  0  0  0  0  0  0  0
    3.8136   -3.0591    0.0000 C   0  0  0  0  0  0  0  0  0  0  0  0
    3.6703   -3.8716    0.0000 O   0  0  0  0  0  0  0  0  0  0  0  0
    3.1816   -2.5288    0.0000 O   0  0  0  0  0  0  0  0  0  0  0  0
  2  1  1  1  0  0  0
  2  3  1  0  0  0  0
  3  4  1  0  0  0  0
  4  5  1  0  0  0  0
  5  6  1  1  0  0  0
  5  7  1  0  0  0  0
  7  8  1  0  0  0  0
  8  9  1  0  0  0  0
  9 10  1  1  0  0  0
  9 11  1  0  0  0  0
 11 12  2  0  0  0  0
 12 13  1  0  0  0  0
 13 14  2  0  0  0  0
 14 15  1  0  0  0  0
 15 16  2  0  0  0  0
 16 17  1  0  0  0  0
 16 18  1  0  0  0  0
 18 19  2  0  0  0  0
 18 20  1  0  0  0  0
 20 21  2  0  0  0  0
 14 21  1  0  0  0  0
 21 22  1  0  0  0  0
 11 22  1  0  0  0  0
 22 23  1  1  0  0  0
 22 24  1  0  0  0  0
 24 25  1  0  0  0  0
 25 26  1  0  0  0  0
  9 26  1  0  0  0  0
 26 27  1  6  0  0  0
 26 28  1  0  0  0  0
  5 28  1  0  0  0  0
 28 29  1  6  0  0  0
  2 29  1  0  0  0  0
  2 30  1  6  0  0  0
 30 31  2  0  0  0  0
 30 32  1  0  0  0  0
M  END

> <ChembankId>
1320

> <SMILES>
C[C@]1(CC[C@]2(C)CC[C@]3(C)C4=CC=C5C=C(O)C(=O)C=C5[C@]4(C)CC[C@@]3(C)[C@@H]2C1)C(=O)O

> <InChI>
1/C28H36O4/c1-24-8-9-25(2,23(31)32)16-22(24)28(5)13-11-26(3)18-15-20(30)19(29)14-17(18)6-7-21(26)27(28,4)12-10-24/h6-7,14-15,22,29H,8-13,16H2,1-5H3,(H,31,32)/t22-,24-,25-,26+,27-,28+/m1/s1

$$$$
2411
  Marvin  11101114192D          

 32 34  0  0  1  0            999 V2000
   -2.8579    0.0000    0.0000 N   0  0  0  0  0  0  0  0  0  0  0  0
   -3.5724   -0.4125    0.0000 C   0  0  0  0  0  0  0  0  0  0  0  0
   -3.5724   -1.2375    0.0000 C   0  0  0  0  0  0  0  0  0  0  0  0
   -4.2868   -1.6500    0.0000 O   0  0  0  0  0  0  0  0  0  0  0  0
   -4.2868   -2.4750    0.0000 C   0  0  1  0  0  0  0  0  0  0  0  0
   -5.0013   -2.8875    0.0000 O   0  0  0  0  0  0  0  0  0  0  0  0
   -5.7158   -2.4750    0.0000 C   0  0  2  0  0  0  0  0  0  0  0  0
   -5.7158   -1.6500    0.0000 C   0  0  2  0  0  0  0  0  0  0  0  0
   -5.0013   -1.2375    0.0000 N   0  0  0  0  0  0  0  0  0  0  0  0
   -6.4302   -1.2375    0.0000 C   0  0  0  0  0  0  0  0  0  0  0  0
   -7.1447   -1.6500    0.0000 C   0  0  1  0  0  0  0  0  0  0  0  0
   -7.8592   -1.2375    0.0000 N   0  0  0  0  0  0  0  0  0  0  0  0
   -7.1447   -2.4750    0.0000 C   0  0  0  0  0  0  0  0  0  0  0  0
   -7.8592   -2.8875    0.0000 O   0  0  0  0  0  0  0  0  0  0  0  0
   -7.8592   -3.7125    0.0000 C   0  0  1  0  0  0  0  0  0  0  0  0
   -7.1447   -4.1250    0.0000 O   0  0  0  0  0  0  0  0  0  0  0  0
   -7.1447   -4.9500    0.0000 C   0  0  0  0  0  0  0  0  0  0  0  0
   -6.4302   -5.3625    0.0000 C   0  0  0  0  0  0  0  0  0  0  0  0
   -5.7158   -4.9500    0.0000 O   0  0  0  0  0  0  0  0  0  0  0  0
   -7.8592   -5.3625    0.0000 C   0  0  1  0  0  0  0  0  0  0  0  0
   -7.8592   -6.1875    0.0000 O   0  0  0  0  0  0  0  0  0  0  0  0
   -8.5737   -4.9500    0.0000 C   0  0  1  0  0  0  0  0  0  0  0  0
   -9.2881   -5.3625    0.0000 N   0  0  0  0  0  0  0  0  0  0  0  0
   -8.5737   -4.1250    0.0000 C   0  0  1  0  0  0  0  0  0  0  0  0
   -9.2881   -3.7125    0.0000 O   0  0  0  0  0  0  0  0  0  0  0  0
   -6.4302   -2.8875    0.0000 C   0  0  0  0  0  0  0  0  0  0  0  0
   -6.4302   -3.7125    0.0000 O   0  0  0  0  0  0  0  0  0  0  0  0
   -3.5724   -2.8875    0.0000 C   0  0  2  0  0  0  0  0  0  0  0  0
   -3.5724   -3.7125    0.0000 N   0  0  0  0  0  0  0  0  0  0  0  0
   -2.8579   -2.4750    0.0000 C   0  0  0  0  0  0  0  0  0  0  0  0
   -2.8579   -1.6500    0.0000 C   0  0  2  0  0  0  0  0  0  0  0  0
   -2.1434   -1.2375    0.0000 O   0  0  0  0  0  0  0  0  0  0  0  0
  1  2  1  0  0  0  0
  2  3  1  0  0  0  0
  3  4  1  0  0  0  0
  4  5  1  0  0  0  0
  5  6  1  6  0  0  0
  7  6  1  1  0  0  0
  7  8  1  0  0  0  0
  8  9  1  1  0  0  0
  8 10  1  0  0  0  0
 10 11  1  0  0  0  0
 11 12  1  6  0  0  0
 11 13  1  0  0  0  0
 13 14  1  0  0  0  0
 15 14  1  1  0  0  0
 15 16  1  0  0  0  0
 16 17  1  0  0  0  0
 17 18  1  0  0  0  0
 18 19  1  0  0  0  0
 17 20  1  0  0  0  0
 20 21  1  1  0  0  0
 20 22  1  0  0  0  0
 22 23  1  1  0  0  0
 22 24  1  0  0  0  0
 15 24  1  0  0  0  0
 24 25  1  1  0  0  0
 13 26  1  0  0  0  0
  7 26  1  0  0  0  0
 26 27  1  0  0  0  0
  5 28  1  0  0  0  0
 28 29  1  1  0  0  0
 28 30  1  0  0  0  0
 30 31  1  0  0  0  0
  3 31  1  0  0  0  0
 31 32  1  1  0  0  0
M  END

> <ChembankId>
2411

> <SMILES>
NCC1O[C@@H](O[C@@H]2[C@H](N)C[C@@H](N)C(O[C@H]3OC(CO)[C@@H](O)[C@@H](N)[C@H]3O)C2O)[C@H](N)C[C@@H]1O

> <InChI>
1/C18H37N5O9/c19-3-9-8(25)2-7(22)17(29-9)31-15-5(20)1-6(21)16(14(15)28)32-18-13(27)11(23)12(26)10(4-24)30-18/h5-18,24-28H,1-4,19-23H2/t5-,6+,7-,8-,9-,10-,11-,12-,13+,14+,15+,16-,17-,18+/m0/s1

$$$$
3304
  Marvin  11101114192D          

 29 32  0  0  0  0            999 V2000
   -2.8579   -7.4250    0.0000 F   0  0  0  0  0  0  0  0  0  0  0  0
   -2.8579   -6.6000    0.0000 C   0  0  0  0  0  0  0  0  0  0  0  0
   -3.5724   -6.1875    0.0000 C   0  0  0  0  0  0  0  0  0  0  0  0
   -3.5724   -5.3625    0.0000 C   0  0  0  0  0  0  0  0  0  0  0  0
   -2.8579   -4.9500    0.0000 C   0  0  0  0  0  0  0  0  0  0  0  0
   -2.1434   -5.3625    0.0000 C   0  0  0  0  0  0  0  0  0  0  0  0
   -2.1434   -6.1875    0.0000 C   0  0  0  0  0  0  0  0  0  0  0  0
   -2.8579   -4.1250    0.0000 C   0  0  0  0  0  0  0  0  0  0  0  0
   -3.5724   -3.7125    0.0000 O   0  0  0  0  0  0  0  0  0  0  0  0
   -2.1434   -3.7125    0.0000 C   0  0  0  0  0  0  0  0  0  0  0  0
   -2.1434   -2.8875    0.0000 C   0  0  0  0  0  0  0  0  0  0  0  0
   -1.4289   -2.4750    0.0000 C   0  0  0  0  0  0  0  0  0  0  0  0
   -0.7145   -2.8875    0.0000 N   0  0  0  0  0  0  0  0  0  0  0  0
    0.0000   -2.4750    0.0000 C   0  0  0  0  0  0  0  0  0  0  0  0
    0.0000   -1.6500    0.0000 C   0  0  0  0  0  0  0  0  0  0  0  0
    0.7145   -1.2375    0.0000 N   0  0  0  0  0  0  0  0  0  0  0  0
    0.7145   -0.4125    0.0000 C   0  0  0  0  0  0  0  0  0  0  0  0
    0.0000    0.0000    0.0000 O   0  0  0  0  0  0  0  0  0  0  0  0
    1.4289    0.0000    0.0000 N   0  0  0  0  0  0  0  0  0  0  0  0
    2.1434   -0.4125    0.0000 C   0  0  0  0  0  0  0  0  0  0  0  0
    2.8579    0.0000    0.0000 C   0  0  0  0  0  0  0  0  0  0  0  0
    3.5724   -0.4125    0.0000 C   0  0  0  0  0  0  0  0  0  0  0  0
    3.5724   -1.2375    0.0000 C   0  0  0  0  0  0  0  0  0  0  0  0
    2.8579   -1.6500    0.0000 C   0  0  0  0  0  0  0  0  0  0  0  0
    2.1434   -1.2375    0.0000 C   0  0  0  0  0  0  0  0  0  0  0  0
    1.4289   -1.6500    0.0000 C   0  0  0  0  0  0  0  0  0  0  0  0
    1.4289   -2.4750    0.0000 O   0  0  0  0  0  0  0  0  0  0  0  0
   -0.7145   -3.7125    0.0000 C   0  0  0  0  0  0  0  0  0  0  0  0
   -1.4289   -4.1250    0.0000 C   0  0  0  0  0  0  0  0  0  0  0  0
  1  2  1  0  0  0  0
  2  3  4  0  0  0  0
  3  4  4  0  0  0  0
  4  5  4  0  0  0  0
  5  6  4  0  0  0  0
  6  7  4  0  0  0  0
  2  7  4  0  0  0  0
  5  8  1  0  0  0  0
  8  9  2  0  0  0  0
  8 10  1  0  0  0  0
 10 11  1  0  0  0  0
 11 12  1  0  0  0  0
 12 13  1  0  0  0  0
 13 14  1  0  0  0  0
 14 15  1  0  0  0  0
 15 16  1  0  0  0  0
 16 17  4  0  0  0  0
 17 18  2  0  0  0  0
 17 19  4  0  0  0  0
 19 20  4  0  0  0  0
 20 21  4  0  0  0  0
 21 22  4  0  0  0  0
 22 23  4  0  0  0  0
 23 24  4  0  0  0  0
 24 25  4  0  0  0  0
 20 25  4  0  0  0  0
 25 26  4  0  0  0  0
 16 26  4  0  0  0  0
 26 27  2  0  0  0  0
 13 28  1  0  0  0  0
 28 29  1  0  0  0  0
 10 29  1  0  0  0  0
M  STY  1   1 DAT
M  SAL   1  1  19
M  SDT   1 MRV_IMPLICIT_H                                        
M  SDD   1     0.0000    0.0000    DR    ALL  0       0  
M  SED   1 IMPL_H1
M  END

> <ChembankId>
3304

> <SMILES>
Fc1ccc(cc1)C(=O)C2CCN(CCn3c(=O)[nH]c4ccccc4c3=O)CC2

> <InChI>
1/C22H22FN3O3/c23-17-7-5-15(6-8-17)20(27)16-9-11-25(12-10-16)13-14-26-21(28)18-3-1-2-4-19(18)24-22(26)29/h1-8,16H,9-14H2,(H,24,29)

$$$$
1128
  Marvin  11101114192D          

 18 20  0  0  1  0            999 V2000
    0.6546    4.9851    0.0000 C   0  0  0  0  0  0  0  0  0  0  0  0
    1.0050    4.2382    0.0000 C   0  0  0  0  0  0  0  0  0  0  0  0
    1.8271    4.1682    0.0000 C   0  0  0  0  0  0  0  0  0  0  0  0
    2.1774    3.4213    0.0000 C   0  0  0  0  0  0  0  0  0  0  0  0
    1.7058    2.7444    0.0000 C   0  0  0  0  0  0  0  0  0  0  0  0
    2.0562    1.9975    0.0000 C   0  0  1  0  0  0  0  0  0  0  0  0
    2.8031    2.3479    0.0000 C   0  0  0  0  0  0  0  0  0  0  0  0
    2.4066    1.2506    0.0000 O   0  0  0  0  0  0  0  0  0  0  0  0
    1.5846    1.3206    0.0000 C   0  0  0  0  0  0  0  0  0  0  0  0
    0.7626    1.3906    0.0000 C   0  0  1  0  0  0  0  0  0  0  0  0
    0.1605    0.8266    0.0000 O   0  0  0  0  0  0  0  0  0  0  0  0
   -0.5620    1.2249    0.0000 C   0  0  0  0  0  0  0  0  0  0  0  0
   -1.3089    0.8745    0.0000 O   0  0  0  0  0  0  0  0  0  0  0  0
   -0.4065    2.0351    0.0000 C   0  0  0  0  0  0  0  0  0  0  0  0
   -0.9705    2.6371    0.0000 C   0  0  0  0  0  0  0  0  0  0  0  0
    0.4122    2.1375    0.0000 C   0  0  2  0  0  0  0  0  0  0  0  0
    0.8838    2.8144    0.0000 C   0  0  0  0  0  0  0  0  0  0  0  0
    0.5334    3.5613    0.0000 C   0  0  0  0  0  0  0  0  0  0  0  0
  1  2  1  0  0  0  0
  2  3  2  0  0  0  0
  3  4  1  4  0  0  0
  4  5  1  0  0  0  0
  5  6  1  0  0  0  0
  6  7  1  6  0  0  0
  6  8  1  0  0  0  0
  8  9  1  0  0  0  0
  6  9  1  0  0  0  0
  9 10  1  0  0  0  0
 10 11  1  1  0  0  0
 11 12  1  0  0  0  0
 12 13  2  0  0  0  0
 12 14  1  0  0  0  0
 14 15  2  0  0  0  0
 16 14  1  6  0  0  0
 10 16  1  0  0  0  0
 16 17  1  0  0  0  0
 17 18  1  0  0  0  0
  2 18  1  0  0  0  0
M  END

> <ChembankId>
1128

> <SMILES>
CC1=CCC[C@@]2(C)OC2[C@H]3OC(=O)C(=C)[C@@H]3CC1

> <InChI>
1/C15H20O3/c1-9-5-4-8-15(3)13(18-15)12-11(7-6-9)10(2)14(16)17-12/h5,11-13H,2,4,6-8H2,1,3H3/t11-,12-,13+,15+/m0/s1

$$$$
283
  Marvin  11101114192D          

 65 68  0  0  1  0            999 V2000
   -2.8181   -4.5719    0.0000 C   0  0  0  0  0  0  0  0  0  0  0  0
   -2.2172   -4.0065    0.0000 O   0  0  0  0  0  0  0  0  0  0  0  0
   -1.4272   -4.2442    0.0000 C   0  0  2  0  0  0  0  0  0  0  0  0
   -0.8264   -3.6789    0.0000 C   0  0  0  0  0  0  0  0  0  0  0  0
   -0.0363   -3.9166    0.0000 C   0  0  0  0  0  0  0  0  0  0  0  0
    0.5645   -3.3512    0.0000 C   0  0  0  0  0  0  0  0  0  0  0  0
    0.3747   -2.5455    0.0000 C   0  0  0  0  0  0  0  0  0  0  0  0
   -0.4418   -2.4625    0.0000 C   0  0  0  0  0  0  0  0  0  0  0  0
    0.9097   -1.8432    0.0000 C   0  0  2  0  0  0  0  0  0  0  0  0
    0.6005   -0.9950    0.0000 C   0  0  0  0  0  0  0  0  0  0  0  0
   -0.1106   -0.5767    0.0000 C   0  0  0  0  0  0  0  0  0  0  0  0
   -0.9333   -0.7200    0.0000 O   0  0  0  0  0  0  0  0  0  0  0  0
    0.0675    0.2288    0.0000 C   0  0  2  0  0  0  0  0  0  0  0  0
   -0.5302    0.8537    0.0000 C   0  0  0  0  0  0  0  0  0  0  0  0
    0.8886    0.3084    0.0000 C   0  0  0  0  0  0  0  0  0  0  0  0
    1.5264    0.9474    0.0000 C   0  0  0  0  0  0  0  0  0  0  0  0
    0.9982    1.6032    0.0000 C   0  0  0  0  0  0  0  0  0  0  0  0
    2.3320    0.7693    0.0000 C   0  0  1  0  0  0  0  0  0  0  0  0
    3.1318    0.5642    0.0000 O   0  0  0  0  0  0  0  0  0  0  0  0
    2.8890    1.3780    0.0000 C   0  0  1  0  0  0  0  0  0  0  0  0
    2.5842    2.1764    0.0000 O   0  0  0  0  0  0  0  0  0  0  0  0
    2.0359    2.8004    0.0000 C   0  0  0  0  0  0  0  0  0  0  0  0
    3.6945    1.1999    0.0000 C   0  0  0  0  0  0  0  0  0  0  0  0
    4.2860    0.6173    0.0000 O   0  0  0  0  0  0  0  0  0  0  0  0
    4.2515    1.8085    0.0000 C   0  0  1  0  0  0  0  0  0  0  0  0
    4.0841    2.6308    0.0000 C   0  0  0  0  0  0  0  0  0  0  0  0
    5.0570    1.6305    0.0000 C   0  0  0  0  0  0  0  0  0  0  0  0
    5.6140    2.2391    0.0000 C   0  0  2  0  0  0  0  0  0  0  0  0
    5.4468    3.0654    0.0000 C   0  0  0  0  0  0  0  0  0  0  0  0
    6.4196    2.0611    0.0000 C   0  0  0  0  0  0  0  0  0  0  0  0
    6.9765    2.6697    0.0000 C   0  0  0  0  0  0  0  0  0  0  0  0
    7.7821    2.4917    0.0000 C   0  0  0  0  0  0  0  0  0  0  0  0
    8.0307    1.7050    0.0000 C   0  0  0  0  0  0  0  0  0  0  0  0
    8.8363    1.5270    0.0000 C   0  0  0  0  0  0  0  0  0  0  0  0
    9.0848    0.7403    0.0000 C   0  0  0  0  0  0  0  0  0  0  0  0
    9.9189    0.6599    0.0000 C   0  0  0  0  0  0  0  0  0  0  0  0
    8.5279    0.1317    0.0000 C   0  0  2  0  0  0  0  0  0  0  0  0
    7.7223    0.3097    0.0000 C   0  0  0  0  0  0  0  0  0  0  0  0
    7.1654   -0.2989    0.0000 C   0  0  2  0  0  0  0  0  0  0  0  0
    7.4140   -1.0855    0.0000 C   0  0  0  0  0  0  0  0  0  0  0  0
    6.8570   -1.6942    0.0000 C   0  0  0  0  0  0  0  0  0  0  0  0
    6.0514   -1.5161    0.0000 C   0  0  1  0  0  0  0  0  0  0  0  0
    5.9901   -2.3672    0.0000 C   0  0  0  0  0  0  0  0  0  0  0  0
    5.8028   -0.7295    0.0000 C   0  0  1  0  0  0  0  0  0  0  0  0
    5.3133   -1.4194    0.0000 O   0  0  0  0  0  0  0  0  0  0  0  0
    6.3598   -0.1208    0.0000 O   0  0  0  0  0  0  0  0  0  0  0  0
    4.9973   -0.5514    0.0000 C   0  0  0  0  0  0  0  0  0  0  0  0
    5.2427    0.2469    0.0000 O   0  0  0  0  0  0  0  0  0  0  0  0
    4.4403   -1.1600    0.0000 C   0  0  0  0  0  0  0  0  0  0  0  0
    4.2576   -1.9942    0.0000 O   0  0  0  0  0  0  0  0  0  0  0  0
    3.6348   -0.9820    0.0000 N   0  0  0  0  0  0  0  0  0  0  0  0
    3.3862   -0.1954    0.0000 C   0  0  0  0  0  0  0  0  0  0  0  0
    2.5806   -0.0173    0.0000 C   0  0  0  0  0  0  0  0  0  0  0  0
    1.8622   -0.9365    0.0000 C   0  0  0  0  0  0  0  0  0  0  0  0
    2.1108   -1.7232    0.0000 C   0  0  0  0  0  0  0  0  0  0  0  0
    3.0778   -1.5906    0.0000 C   0  0  1  0  0  0  0  0  0  0  0  0
    2.2722   -1.4126    0.0000 C   0  0  0  0  0  0  0  0  0  0  0  0
    2.6600   -0.7289    0.0000 O   0  0  0  0  0  0  0  0  0  0  0  0
    1.7153   -2.0212    0.0000 O   0  0  0  0  0  0  0  0  0  0  0  0
    8.9388   -0.6405    0.0000 O   0  0  0  0  0  0  0  0  0  0  0  0
    9.6625   -1.0609    0.0000 C   0  0  0  0  0  0  0  0  0  0  0  0
    0.1528   -4.7196    0.0000 C   0  0  0  0  0  0  0  0  0  0  0  0
   -0.4480   -5.2849    0.0000 C   0  0  0  0  0  0  0  0  0  0  0  0
   -1.2380   -5.0472    0.0000 C   0  0  1  0  0  0  0  0  0  0  0  0
   -1.8389   -5.6126    0.0000 O   0  0  0  0  0  0  0  0  0  0  0  0
  1  2  1  0  0  0  0
  3  2  1  6  0  0  0
  3  4  1  0  0  0  0
  4  5  1  0  0  0  0
  5  6  1  0  0  0  0
  6  7  1  0  0  0  0
  7  8  1  0  0  0  0
  9  7  1  6  0  0  0
  9 10  1  0  0  0  0
 10 11  1  0  0  0  0
 11 12  2  0  0  0  0
 11 13  1  0  0  0  0
 13 14  1  6  0  0  0
 13 15  1  0  0  0  0
 15 16  2  0  0  0  0
 16 17  1  4  0  0  0
 16 18  1  0  0  0  0
 18 19  1  6  0  0  0
 18 20  1  0  0  0  0
 20 21  1  1  0  0  0
 21 22  1  0  0  0  0
 20 23  1  0  0  0  0
 23 24  2  0  0  0  0
 23 25  1  0  0  0  0
 25 26  1  1  0  0  0
 25 27  1  0  0  0  0
 27 28  1  0  0  0  0
 28 29  1  6  0  0  0
 28 30  1  0  0  0  0
 30 31  2  0  0  0  0
 31 32  1  4  0  0  0
 32 33  2  0  0  0  0
 33 34  1  4  0  0  0
 34 35  2  0  0  0  0
 35 36  1  4  0  0  0
 35 37  1  0  0  0  0
 37 38  1  0  0  0  0
 39 38  1  6  0  0  0
 39 40  1  0  0  0  0
 40 41  1  0  0  0  0
 41 42  1  0  0  0  0
 42 43  1  1  0  0  0
 42 44  1  0  0  0  0
 44 45  1  1  0  0  0
 44 46  1  0  0  0  0
 39 46  1  0  0  0  0
 44 47  1  0  0  0  0
 47 48  2  0  0  0  0
 47 49  1  0  0  0  0
 49 50  2  0  0  0  0
 49 51  1  0  0  0  0
 51 52  1  0  0  0  0
 52 53  1  0  0  0  0
 53 54  1  0  0  0  0
 54 55  1  0  0  0  0
 55 56  1  0  0  0  0
 56 51  1  1  0  0  0
 56 57  1  0  0  0  0
 57 58  2  0  0  0  0
 57 59  1  0  0  0  0
  9 59  1  0  0  0  0
 37 60  1  1  0  0  0
 60 61  1  0  0  0  0
  5 62  1  0  0  0  0
 62 63  1  0  0  0  0
 63 64  1  0  0  0  0
  3 64  1  0  0  0  0
 64 65  1  1  0  0  0
M  END

> <ChembankId>
283

> <SMILES>
CO[C@@H]1CC(CC(C)[C@@H]2CC(=O)[C@H](C)C=C(C)[C@@H](O)[C@@H](OC)C(=O)[C@@H](C)C[C@H](C)C=CC=CC=C(C)[C@H](C[C@@H]3CC[C@@H](C)[C@@](O)(O3)C(=O)C(=O)N4CCCC[C@H]4C(=O)O2)OC)CC[C@H]1O

> <InChI>
1/C51H79NO13/c1-30-16-12-11-13-17-31(2)42(61-8)28-38-21-19-36(7)51(60,65-38)48(57)49(58)52-23-15-14-18-39(52)50(59)64-43(33(4)26-37-20-22-40(53)44(27-37)62-9)29-41(54)32(3)25-35(6)46(56)47(63-10)45(55)34(5)24-30/h11-13,16-17,25,30,32-34,36-40,42-44,46-47,53,56,60H,14-15,18-24,26-29H2,1-10H3/t30-,32-,33-,34-,36-,37-,38+,39+,40-,42+,43+,44-,46-,47+,51-/m1/s1

$$$$
2440
  Marvin  11101114192D          

 21 23  0  0  0  0            999 V2000
    4.2868    0.0000    0.0000 C   0  0  0  0  0  0  0  0  0  0  0  0
    4.2868    0.8250    0.0000 C   0  0  0  0  0  0  0  0  0  0  0  0
    3.5724    1.2375    0.0000 C   0  0  0  0  0  0  0  0  0  0  0  0
    2.8579    0.8250    0.0000 N   0  0  0  0  0  0  0  0  0  0  0  0
    2.1434    1.2375    0.0000 C   0  0  0  0  0  0  0  0  0  0  0  0
    2.8579    0.0000    0.0000 C   0  0  0  0  0  0  0  0  0  0  0  0
    5.0013    1.2375    0.0000 C   0  0  0  0  0  0  0  0  0  0  0  0
    5.7158    0.8250    0.0000 N   0  0  0  0  0  0  0  0  0  0  0  0
    6.4302    1.2375    0.0000 C   0  0  0  0  0  0  0  0  0  0  0  0
    6.4302    2.0625    0.0000 C   0  0  0  0  0  0  0  0  0  0  0  0
    7.1447    2.4750    0.0000 C   0  0  0  0  0  0  0  0  0  0  0  0
    7.8592    2.0625    0.0000 C   0  0  0  0  0  0  0  0  0  0  0  0
    7.8592    1.2375    0.0000 C   0  0  0  0  0  0  0  0  0  0  0  0
    7.1447    0.8250    0.0000 C   0  0  0  0  0  0  0  0  0  0  0  0
    7.1447    0.0000    0.0000 S   0  0  0  0  0  0  0  0  0  0  0  0
    6.4302   -0.4125    0.0000 C   0  0  0  0  0  0  0  0  0  0  0  0
    6.4302   -1.2375    0.0000 C   0  0  0  0  0  0  0  0  0  0  0  0
    5.7158   -1.6500    0.0000 C   0  0  0  0  0  0  0  0  0  0  0  0
    5.0013   -1.2375    0.0000 C   0  0  0  0  0  0  0  0  0  0  0  0
    5.0013   -0.4125    0.0000 C   0  0  0  0  0  0  0  0  0  0  0  0
    5.7158    0.0000    0.0000 C   0  0  0  0  0  0  0  0  0  0  0  0
  1  2  1  0  0  0  0
  2  3  1  0  0  0  0
  3  4  1  0  0  0  0
  4  5  1  0  0  0  0
  4  6  1  0  0  0  0
  2  7  1  0  0  0  0
  7  8  1  0  0  0  0
  8  9  1  0  0  0  0
  9 10  4  0  0  0  0
 10 11  4  0  0  0  0
 11 12  4  0  0  0  0
 12 13  4  0  0  0  0
 13 14  4  0  0  0  0
  9 14  4  0  0  0  0
 14 15  1  0  0  0  0
 15 16  1  0  0  0  0
 16 17  4  0  0  0  0
 17 18  4  0  0  0  0
 18 19  4  0  0  0  0
 19 20  4  0  0  0  0
 20 21  4  0  0  0  0
  8 21  1  0  0  0  0
 16 21  4  0  0  0  0
M  END

> <ChembankId>
2440

> <SMILES>
CC(CN(C)C)CN1c2ccccc2Sc3ccccc13

> <InChI>
1/C18H22N2S/c1-14(12-19(2)3)13-20-15-8-4-6-10-17(15)21-18-11-7-5-9-16(18)20/h4-11,14H,12-13H2,1-3H3/t14-/m0/s1

$$$$
3241
  Marvin  11101114192D          

 14 15  0  0  0  0            999 V2000
    2.0367    2.0009    0.0000 C   0  0  0  0  0  0  0  0  0  0  0  0
    2.7512    2.4134    0.0000 N   0  0  0  0  0  0  0  0  0  0  0  0
    2.7512    3.2384    0.0000 C   0  0  0  0  0  0  0  0  0  0  0  0
    3.4656    3.6509    0.0000 C   0  0  0  0  0  0  0  0  0  0  0  0
    4.1801    3.2384    0.0000 C   0  0  0  0  0  0  0  0  0  0  0  0
    4.1801    2.4134    0.0000 N   0  0  0  0  0  0  0  0  0  0  0  0
    3.4656    2.0009    0.0000 C   0  0  0  0  0  0  0  0  0  0  0  0
    3.4656    1.1759    0.0000 C   0  0  0  0  0  0  0  0  0  0  0  0
    4.1801    0.7634    0.0000 C   0  0  0  0  0  0  0  0  0  0  0  0
    4.1801   -0.0616    0.0000 C   0  0  0  0  0  0  0  0  0  0  0  0
    4.8476   -0.5465    0.0000 C   0  0  0  0  0  0  0  0  0  0  0  0
    4.5926   -1.3312    0.0000 C   0  0  0  0  0  0  0  0  0  0  0  0
    3.7676   -1.3312    0.0000 C   0  0  0  0  0  0  0  0  0  0  0  0
    3.5127   -0.5465    0.0000 S   0  0  0  0  0  0  0  0  0  0  0  0
  1  2  1  0  0  0  0
  2  3  1  0  0  0  0
  3  4  1  0  0  0  0
  4  5  1  0  0  0  0
  5  6  1  0  0  0  0
  6  7  2  0  0  0  0
  2  7  1  0  0  0  0
  7  8  1  0  0  0  0
  8  9  2  0  0  0  0
  9 10  1  0  0  0  0
 10 11  4  0  0  0  0
 11 12  4  0  0  0  0
 12 13  4  0  0  0  0
 13 14  4  0  0  0  0
 10 14  4  0  0  0  0
M  END

> <ChembankId>
3241

> <SMILES>
CN1CCCN=C1/C=C/c2cccs2

> <InChI>
1/C11H14N2S/c1-13-8-3-7-12-11(13)6-5-10-4-2-9-14-10/h2,4-6,9H,3,7-8H2,1H3/b6-5+

$$$$
127
  Marvin  11101114192D          

 40 41  0  0  1  0            999 V2000
    3.8641   -2.0445    0.0000 C   0  0  0  0  0  0  0  0  0  0  0  0
    4.1056   -1.2557    0.0000 O   0  0  0  0  0  0  0  0  0  0  0  0
    3.5431   -0.6521    0.0000 C   0  0  1  0  0  0  0  0  0  0  0  0
    2.7392   -0.8374    0.0000 C   0  0  0  0  0  0  0  0  0  0  0  0
    2.0956   -0.2042    0.0000 C   0  0  1  0  0  0  0  0  0  0  0  0
    2.4414    0.5448    0.0000 C   0  0  0  0  0  0  0  0  0  0  0  0
    1.2738   -0.1320    0.0000 C   0  0  0  0  0  0  0  0  0  0  0  0
    1.0885    0.6719    0.0000 C   0  0  0  0  0  0  0  0  0  0  0  0
    0.4414    1.1837    0.0000 C   0  0  0  0  0  0  0  0  0  0  0  0
   -0.3253    0.8791    0.0000 O   0  0  0  0  0  0  0  0  0  0  0  0
   -0.9724    1.3909    0.0000 C   0  0  0  0  0  0  0  0  0  0  0  0
    0.5611    1.9999    0.0000 C   0  0  0  0  0  0  0  0  0  0  0  0
   -0.0860    2.5117    0.0000 O   0  0  0  0  0  0  0  0  0  0  0  0
    1.3278    2.3044    0.0000 C   0  0  0  0  0  0  0  0  0  0  0  0
    2.0973    1.9475    0.0000 C   0  0  0  0  0  0  0  0  0  0  0  0
    2.9013    2.1328    0.0000 N   0  0  0  0  0  0  0  0  0  0  0  0
    3.1428    2.9217    0.0000 C   0  0  0  0  0  0  0  0  0  0  0  0
    2.5803    3.5252    0.0000 O   0  0  0  0  0  0  0  0  0  0  0  0
    3.9467    3.1069    0.0000 C   0  0  0  0  0  0  0  0  0  0  0  0
    4.1882    3.8958    0.0000 C   0  0  0  0  0  0  0  0  0  0  0  0
    4.9921    4.0811    0.0000 C   0  0  0  0  0  0  0  0  0  0  0  0
    5.5545    3.4775    0.0000 C   0  0  0  0  0  0  0  0  0  0  0  0
    5.3130    2.6887    0.0000 C   0  0  2  0  0  0  0  0  0  0  0  0
    6.1170    2.8740    0.0000 O   0  0  0  0  0  0  0  0  0  0  0  0
    6.3585    3.6628    0.0000 C   0  0  0  0  0  0  0  0  0  0  0  0
    5.8755    2.0851    0.0000 C   0  0  1  0  0  0  0  0  0  0  0  0
    6.6794    2.2704    0.0000 O   0  0  0  0  0  0  0  0  0  0  0  0
    7.2418    1.6668    0.0000 C   0  0  0  0  0  0  0  0  0  0  0  0
    8.0457    1.8521    0.0000 O   0  0  0  0  0  0  0  0  0  0  0  0
    7.0003    0.8779    0.0000 N   0  0  0  0  0  0  0  0  0  0  0  0
    5.6340    1.2962    0.0000 C   0  0  0  0  0  0  0  0  0  0  0  0
    4.8300    1.1109    0.0000 C   0  0  0  0  0  0  0  0  0  0  0  0
    4.5886    0.3221    0.0000 C   0  0  2  0  0  0  0  0  0  0  0  0
    5.1510   -0.2815    0.0000 C   0  0  0  0  0  0  0  0  0  0  0  0
    3.7846    0.1368    0.0000 C   0  0  1  0  0  0  0  0  0  0  0  0
    3.2222    0.7404    0.0000 O   0  0  0  0  0  0  0  0  0  0  0  0
    6.1964    0.6927    0.0000 C   0  0  0  0  0  0  0  0  0  0  0  0
    4.5091    2.5034    0.0000 C   0  0  0  0  0  0  0  0  0  0  0  0
    1.7958    1.0965    0.0000 C   0  0  0  0  0  0  0  0  0  0  0  0
    2.5647    0.7973    0.0000 O   0  0  0  0  0  0  0  0  0  0  0  0
  1  2  1  0  0  0  0
  3  2  1  1  0  0  0
  3  4  1  0  0  0  0
  4  5  1  0  0  0  0
  5  6  1  6  0  0  0
  5  7  1  0  0  0  0
  7  8  1  0  0  0  0
  8  9  2  0  0  0  0
  9 10  1  0  0  0  0
 10 11  1  0  0  0  0
  9 12  1  0  0  0  0
 12 13  2  0  0  0  0
 12 14  1  0  0  0  0
 14 15  2  0  0  0  0
 15 16  1  0  0  0  0
 16 17  1  0  0  0  0
 17 18  2  0  0  0  0
 17 19  1  0  0  0  0
 19 20  2  0  0  0  0
 20 21  1  0  0  0  0
 21 22  2  0  0  0  0
 22 23  1  0  0  0  0
 23 24  1  1  0  0  0
 24 25  1  0  0  0  0
 23 26  1  0  0  0  0
 26 27  1  1  0  0  0
 27 28  1  0  0  0  0
 28 29  2  0  0  0  0
 28 30  1  0  0  0  0
 26 31  1  0  0  0  0
 31 32  2  0  0  0  0
 32 33  1  0  0  0  0
 33 34  1  6  0  0  0
 33 35  1  0  0  0  0
  3 35  1  0  0  0  0
 35 36  1  6  0  0  0
 31 37  1  0  0  0  0
 19 38  1  0  0  0  0
 15 39  1  0  0  0  0
  8 39  1  0  0  0  0
 39 40  2  0  0  0  0
M  END

> <ChembankId>
127

> <SMILES>
CO[C@H]1C[C@@H](C)CC2=C(OC)C(=O)C=C(NC(=O)/C(=C/C=C\[C@H](OC)[C@@H](OC(=O)N)/C(=C/[C@H](C)[C@H]1O)/C)/C)C2=O

> <InChI>
1/C29H40N2O9/c1-15-11-19-25(34)20(14-21(32)27(19)39-7)31-28(35)16(2)9-8-10-22(37-5)26(40-29(30)36)18(4)13-17(3)24(33)23(12-15)38-6/h8-10,13-15,17,22-24,26,33H,11-12H2,1-7H3,(H2,30,36)(H,31,35)

$$$$
371
  Marvin  11101114192D          

 27 29  0  0  1  0            999 V2000
   -2.7792   -4.5927    0.0000 C   0  0  0  0  0  0  0  0  0  0  0  0
   -1.9690   -4.7486    0.0000 C   0  0  0  0  0  0  0  0  0  0  0  0
   -1.6990   -5.5282    0.0000 C   0  0  0  0  0  0  0  0  0  0  0  0
   -1.4289   -4.1250    0.0000 C   0  0  0  0  0  0  0  0  0  0  0  0
   -0.6188   -4.2809    0.0000 O   0  0  0  0  0  0  0  0  0  0  0  0
   -0.0787   -3.6573    0.0000 C   0  0  0  0  0  0  0  0  0  0  0  0
    0.7314   -3.8132    0.0000 C   0  0  2  0  0  0  0  0  0  0  0  0
    1.2715   -3.1895    0.0000 C   0  0  0  0  0  0  0  0  0  0  0  0
    2.0816   -3.3454    0.0000 N   0  0  0  0  0  0  0  0  0  0  0  0
    2.3517   -4.1250    0.0000 C   0  0  0  0  0  0  0  0  0  0  0  0
    3.1618   -4.2809    0.0000 C   0  0  0  0  0  0  0  0  0  0  0  0
    3.7019   -3.6573    0.0000 C   0  0  0  0  0  0  0  0  0  0  0  0
    4.5120   -3.8132    0.0000 C   0  0  0  0  0  0  0  0  0  0  0  0
    4.7821   -4.5927    0.0000 C   0  0  0  0  0  0  0  0  0  0  0  0
    4.2420   -5.2164    0.0000 C   0  0  0  0  0  0  0  0  0  0  0  0
    3.4319   -5.0605    0.0000 C   0  0  0  0  0  0  0  0  0  0  0  0
    2.6217   -2.7218    0.0000 C   0  0  0  0  0  0  0  0  0  0  0  0
    2.3517   -1.9423    0.0000 C   0  0  0  0  0  0  0  0  0  0  0  0
    2.8918   -1.3186    0.0000 C   0  0  0  0  0  0  0  0  0  0  0  0
    3.7019   -1.4745    0.0000 C   0  0  0  0  0  0  0  0  0  0  0  0
    3.9720   -2.2541    0.0000 C   0  0  0  0  0  0  0  0  0  0  0  0
    3.4319   -2.8777    0.0000 C   0  0  0  0  0  0  0  0  0  0  0  0
    1.0015   -4.5927    0.0000 N   0  0  0  0  0  0  0  0  0  0  0  0
    1.7909   -4.8325    0.0000 C   0  0  0  0  0  0  0  0  0  0  0  0
    1.8068   -5.6573    0.0000 C   0  0  0  0  0  0  0  0  0  0  0  0
    1.0272   -5.9274    0.0000 C   0  0  0  0  0  0  0  0  0  0  0  0
    0.5295   -5.2694    0.0000 C   0  0  0  0  0  0  0  0  0  0  0  0
  1  2  1  0  0  0  0
  2  3  1  0  0  0  0
  2  4  1  0  0  0  0
  4  5  1  0  0  0  0
  5  6  1  0  0  0  0
  6  7  1  0  0  0  0
  7  8  1  0  0  0  0
  8  9  1  0  0  0  0
  9 10  1  0  0  0  0
 10 11  1  0  0  0  0
 11 12  4  0  0  0  0
 12 13  4  0  0  0  0
 13 14  4  0  0  0  0
 14 15  4  0  0  0  0
 15 16  4  0  0  0  0
 11 16  4  0  0  0  0
  9 17  1  0  0  0  0
 17 18  4  0  0  0  0
 18 19  4  0  0  0  0
 19 20  4  0  0  0  0
 20 21  4  0  0  0  0
 21 22  4  0  0  0  0
 17 22  4  0  0  0  0
  7 23  1  6  0  0  0
 23 24  1  0  0  0  0
 24 25  1  0  0  0  0
 25 26  1  0  0  0  0
 26 27  1  0  0  0  0
 23 27  1  0  0  0  0
M  END

> <ChembankId>
371

> <SMILES>
CC(C)COC[C@H](CN(Cc1ccccc1)c2ccccc2)N3CCCC3

> <InChI>
1/C24H34N2O/c1-21(2)19-27-20-24(25-15-9-10-16-25)18-26(23-13-7-4-8-14-23)17-22-11-5-3-6-12-22/h3-8,11-14,21,24H,9-10,15-20H2,1-2H3

$$$$
545
  Marvin  11101114192D          

 25 28  0  0  0  0            999 V2000
    0.8838   -2.1500    0.0000 O   0  0  0  0  0  0  0  0  0  0  0  0
    1.1387   -1.3654    0.0000 C   0  0  0  0  0  0  0  0  0  0  0  0
    0.6538   -0.6979    0.0000 N   0  0  0  0  0  0  0  0  0  0  0  0
    1.1387   -0.0305    0.0000 C   0  0  0  0  0  0  0  0  0  0  0  0
    0.8838    0.7541    0.0000 O   0  0  0  0  0  0  0  0  0  0  0  0
    1.9233   -0.2854    0.0000 C   0  0  0  0  0  0  0  0  0  0  0  0
    2.6378    0.1271    0.0000 C   0  0  0  0  0  0  0  0  0  0  0  0
    3.3523   -0.2854    0.0000 C   0  0  0  0  0  0  0  0  0  0  0  0
    4.0668    0.1271    0.0000 N   0  0  0  0  0  0  0  0  0  0  0  0
    4.0668    0.9521    0.0000 C   0  0  0  0  0  0  0  0  0  0  0  0
    3.3523    1.3646    0.0000 C   0  0  0  0  0  0  0  0  0  0  0  0
    3.3523    2.1896    0.0000 C   0  0  0  0  0  0  0  0  0  0  0  0
    4.0668    2.6021    0.0000 C   0  0  0  0  0  0  0  0  0  0  0  0
    4.7812    2.1896    0.0000 C   0  0  0  0  0  0  0  0  0  0  0  0
    4.7812    1.3646    0.0000 C   0  0  0  0  0  0  0  0  0  0  0  0
    3.3523   -1.1104    0.0000 C   0  0  0  0  0  0  0  0  0  0  0  0
    4.0668   -1.5229    0.0000 N   0  0  0  0  0  0  0  0  0  0  0  0
    4.0668   -2.3479    0.0000 C   0  0  0  0  0  0  0  0  0  0  0  0
    4.7812   -2.7604    0.0000 C   0  0  0  0  0  0  0  0  0  0  0  0
    4.7812   -3.5854    0.0000 C   0  0  0  0  0  0  0  0  0  0  0  0
    4.0668   -3.9979    0.0000 C   0  0  0  0  0  0  0  0  0  0  0  0
    3.3523   -3.5854    0.0000 C   0  0  0  0  0  0  0  0  0  0  0  0
    3.3523   -2.7604    0.0000 C   0  0  0  0  0  0  0  0  0  0  0  0
    2.6378   -1.5229    0.0000 C   0  0  0  0  0  0  0  0  0  0  0  0
    1.9233   -1.1104    0.0000 C   0  0  0  0  0  0  0  0  0  0  0  0
  1  2  2  0  0  0  0
  2  3  1  0  0  0  0
  3  4  1  0  0  0  0
  4  5  2  0  0  0  0
  4  6  1  0  0  0  0
  6  7  4  0  0  0  0
  7  8  4  0  0  0  0
  8  9  1  0  0  0  0
  9 10  1  0  0  0  0
 10 11  4  0  0  0  0
 11 12  4  0  0  0  0
 12 13  4  0  0  0  0
 13 14  4  0  0  0  0
 14 15  4  0  0  0  0
 10 15  4  0  0  0  0
  8 16  4  0  0  0  0
 16 17  1  0  0  0  0
 17 18  1  0  0  0  0
 18 19  4  0  0  0  0
 19 20  4  0  0  0  0
 20 21  4  0  0  0  0
 21 22  4  0  0  0  0
 22 23  4  0  0  0  0
 18 23  4  0  0  0  0
 16 24  4  0  0  0  0
 24 25  4  0  0  0  0
  2 25  1  0  0  0  0
  6 25  4  0  0  0  0
M  END

> <ChembankId>
545

> <SMILES>
O=C1NC(=O)c2cc(Nc3ccccc3)c(Nc4ccccc4)cc12

> <InChI>
1/C20H15N3O2/c24-19-15-11-17(21-13-7-3-1-4-8-13)18(12-16(15)20(25)23-19)22-14-9-5-2-6-10-14/h1-12,21-22H,(H,23,24,25)

$$$$
665
  Marvin  11101114192D          

 37 41  0  0  0  0            999 V2000
    7.8592   -5.3625    0.0000 C   0  0  0  0  0  0  0  0  0  0  0  0
    7.8592   -6.1875    0.0000 N   0  0  0  0  0  0  0  0  0  0  0  0
    8.5737   -6.6000    0.0000 C   0  0  0  0  0  0  0  0  0  0  0  0
    8.5737   -7.4250    0.0000 C   0  0  0  0  0  0  0  0  0  0  0  0
    7.8592   -7.8375    0.0000 N   0  0  0  0  0  0  0  0  0  0  0  0
    7.8592   -8.6625    0.0000 C   0  0  0  0  0  0  0  0  0  0  0  0
    7.1447   -9.0750    0.0000 C   0  0  0  0  0  0  0  0  0  0  0  0
    7.1447   -9.9000    0.0000 C   0  0  0  0  0  0  0  0  0  0  0  0
    6.4302  -10.3125    0.0000 C   0  0  0  0  0  0  0  0  0  0  0  0
    5.7158   -9.9000    0.0000 C   0  0  0  0  0  0  0  0  0  0  0  0
    5.7158   -9.0750    0.0000 C   0  0  0  0  0  0  0  0  0  0  0  0
    6.4302   -8.6625    0.0000 C   0  0  0  0  0  0  0  0  0  0  0  0
    5.0013  -10.3125    0.0000 C   0  0  0  0  0  0  0  0  0  0  0  0
    5.0013  -11.1375    0.0000 O   0  0  0  0  0  0  0  0  0  0  0  0
    4.2868   -9.9000    0.0000 N   0  0  0  0  0  0  0  0  0  0  0  0
    3.5724  -10.3125    0.0000 C   0  0  0  0  0  0  0  0  0  0  0  0
    3.5724  -11.1375    0.0000 C   0  0  0  0  0  0  0  0  0  0  0  0
    2.8579  -11.5500    0.0000 C   0  0  0  0  0  0  0  0  0  0  0  0
    2.1434  -11.1375    0.0000 C   0  0  0  0  0  0  0  0  0  0  0  0
    1.4289  -11.5500    0.0000 C   0  0  0  0  0  0  0  0  0  0  0  0
    2.1434  -10.3125    0.0000 C   0  0  0  0  0  0  0  0  0  0  0  0
    1.4289   -9.9000    0.0000 N   0  0  0  0  0  0  0  0  0  0  0  0
    0.7145  -10.3125    0.0000 C   0  0  0  0  0  0  0  0  0  0  0  0
    0.7145  -11.1375    0.0000 N   0  0  0  0  0  0  0  0  0  0  0  0
   -0.0000  -11.5500    0.0000 C   0  0  0  0  0  0  0  0  0  0  0  0
   -0.7145  -11.1375    0.0000 C   0  0  0  0  0  0  0  0  0  0  0  0
   -0.7145  -10.3125    0.0000 C   0  0  0  0  0  0  0  0  0  0  0  0
    0.0000   -9.9000    0.0000 N   0  0  0  0  0  0  0  0  0  0  0  0
   -1.4289   -9.9000    0.0000 C   0  0  0  0  0  0  0  0  0  0  0  0
   -2.1434  -10.3125    0.0000 C   0  0  0  0  0  0  0  0  0  0  0  0
   -2.8579   -9.9000    0.0000 C   0  0  0  0  0  0  0  0  0  0  0  0
   -2.8579   -9.0750    0.0000 C   0  0  0  0  0  0  0  0  0  0  0  0
   -2.1434   -8.6625    0.0000 N   0  0  0  0  0  0  0  0  0  0  0  0
   -1.4289   -9.0750    0.0000 C   0  0  0  0  0  0  0  0  0  0  0  0
    2.8579   -9.9000    0.0000 C   0  0  0  0  0  0  0  0  0  0  0  0
    7.1447   -7.4250    0.0000 C   0  0  0  0  0  0  0  0  0  0  0  0
    7.1447   -6.6000    0.0000 C   0  0  0  0  0  0  0  0  0  0  0  0
  1  2  1  0  0  0  0
  2  3  1  0  0  0  0
  3  4  1  0  0  0  0
  4  5  1  0  0  0  0
  5  6  1  0  0  0  0
  6  7  1  0  0  0  0
  7  8  4  0  0  0  0
  8  9  4  0  0  0  0
  9 10  4  0  0  0  0
 10 11  4  0  0  0  0
 11 12  4  0  0  0  0
  7 12  4  0  0  0  0
 10 13  1  0  0  0  0
 13 14  2  0  0  0  0
 13 15  1  0  0  0  0
 15 16  1  0  0  0  0
 16 17  4  0  0  0  0
 17 18  4  0  0  0  0
 18 19  4  0  0  0  0
 19 20  1  0  0  0  0
 19 21  4  0  0  0  0
 21 22  1  0  0  0  0
 22 23  1  0  0  0  0
 23 24  4  0  0  0  0
 24 25  4  0  0  0  0
 25 26  4  0  0  0  0
 26 27  4  0  0  0  0
 27 28  4  0  0  0  0
 23 28  4  0  0  0  0
 27 29  1  0  0  0  0
 29 30  4  0  0  0  0
 30 31  4  0  0  0  0
 31 32  4  0  0  0  0
 32 33  4  0  0  0  0
 33 34  4  0  0  0  0
 29 34  4  0  0  0  0
 21 35  4  0  0  0  0
 16 35  4  0  0  0  0
  5 36  1  0  0  0  0
 36 37  1  0  0  0  0
  2 37  1  0  0  0  0
M  END

> <ChembankId>
665

> <SMILES>
CN1CCN(Cc2ccc(cc2)C(=O)Nc3ccc(C)c(Nc4nccc(n4)c5cccnc5)c3)CC1

> <InChI>
1/C29H31N7O/c1-21-5-10-25(18-27(21)34-29-31-13-11-26(33-29)24-4-3-12-30-19-24)32-28(37)23-8-6-22(7-9-23)20-36-16-14-35(2)15-17-36/h3-13,18-19H,14-17,20H2,1-2H3,(H,32,37)(H,31,33,34)

$$$$
673
  Marvin  11101114192D          

 24 25  0  0  0  0            999 V2000
    2.1434   -1.2375    0.0000 N   0  0  0  0  0  0  0  0  0  0  0  0
    1.4289   -1.6500    0.0000 C   0  0  0  0  0  0  0  0  0  0  0  0
    1.4289   -2.4750    0.0000 C   0  0  0  0  0  0  0  0  0  0  0  0
    0.7145   -2.8875    0.0000 C   0  0  0  0  0  0  0  0  0  0  0  0
    0.0000   -3.3000    0.0000 N   0  0  0  0  0  0  0  0  0  0  0  0
    2.1434   -2.8875    0.0000 C   0  0  0  0  0  0  0  0  0  0  0  0
    2.1434   -3.7125    0.0000 C   0  0  0  0  0  0  0  0  0  0  0  0
    1.4289   -4.1250    0.0000 N   0  0  0  0  0  0  0  0  0  0  0  0
    2.8579   -4.1250    0.0000 S   0  0  0  0  0  0  0  0  0  0  0  0
    2.8579   -4.9500    0.0000 C   0  0  0  0  0  0  0  0  0  0  0  0
    3.5724   -5.3625    0.0000 C   0  0  0  0  0  0  0  0  0  0  0  0
    3.5724   -6.1875    0.0000 C   0  0  0  0  0  0  0  0  0  0  0  0
    2.8579   -6.6000    0.0000 C   0  0  0  0  0  0  0  0  0  0  0  0
    2.1434   -6.1875    0.0000 C   0  0  0  0  0  0  0  0  0  0  0  0
    2.1434   -5.3625    0.0000 C   0  0  0  0  0  0  0  0  0  0  0  0
    2.8579   -2.4750    0.0000 C   0  0  0  0  0  0  0  0  0  0  0  0
    3.5724   -2.0625    0.0000 N   0  0  0  0  0  0  0  0  0  0  0  0
    0.7145   -1.2375    0.0000 S   0  0  0  0  0  0  0  0  0  0  0  0
    0.7145   -0.4125    0.0000 C   0  0  0  0  0  0  0  0  0  0  0  0
    0.0000    0.0000    0.0000 C   0  0  0  0  0  0  0  0  0  0  0  0
    0.0000    0.8250    0.0000 C   0  0  0  0  0  0  0  0  0  0  0  0
    0.7145    1.2375    0.0000 C   0  0  0  0  0  0  0  0  0  0  0  0
    1.4289    0.8250    0.0000 C   0  0  0  0  0  0  0  0  0  0  0  0
    1.4289    0.0000    0.0000 C   0  0  0  0  0  0  0  0  0  0  0  0
  1  2  1  0  0  0  0
  2  3  2  0  0  0  0
  3  4  1  0  0  0  0
  4  5  3  0  0  0  0
  3  6  1  0  0  0  0
  6  7  2  0  0  0  0
  7  8  1  0  0  0  0
  7  9  1  0  0  0  0
  9 10  1  0  0  0  0
 10 11  4  0  0  0  0
 11 12  4  0  0  0  0
 12 13  4  0  0  0  0
 13 14  4  0  0  0  0
 14 15  4  0  0  0  0
 10 15  4  0  0  0  0
  6 16  1  0  0  0  0
 16 17  3  0  0  0  0
  2 18  1  0  0  0  0
 18 19  1  0  0  0  0
 19 20  4  0  0  0  0
 20 21  4  0  0  0  0
 21 22  4  0  0  0  0
 22 23  4  0  0  0  0
 23 24  4  0  0  0  0
 19 24  4  0  0  0  0
M  END

> <ChembankId>
673

> <SMILES>
N/C(=C(/C#N)\C(=C(/N)\Sc1ccccc1)\C#N)/Sc2ccccc2

> <InChI>
1/C18H14N4S2/c19-11-15(17(21)23-13-7-3-1-4-8-13)16(12-20)18(22)24-14-9-5-2-6-10-14/h1-10H,21-22H2

$$$$
713
  Marvin  11101114192D          

 42 45  0  0  1  0            999 V2000
    4.2868   -2.4750    0.0000 N   0  0  0  0  0  0  0  0  0  0  0  0
    3.5724   -2.8875    0.0000 C   0  0  0  0  0  0  0  0  0  0  0  0
    2.8579   -2.4750    0.0000 C   0  0  2  0  0  0  0  0  0  0  0  0
    2.1434   -2.8875    0.0000 O   0  0  0  0  0  0  0  0  0  0  0  0
    1.4289   -2.4750    0.0000 C   0  0  1  0  0  0  0  0  0  0  0  0
    0.7145   -2.8875    0.0000 O   0  0  0  0  0  0  0  0  0  0  0  0
    0.7145   -3.7125    0.0000 C   0  0  1  0  0  0  0  0  0  0  0  0
    0.0470   -4.1974    0.0000 C   0  0  2  0  0  0  0  0  0  0  0  0
   -0.7376   -3.9425    0.0000 O   0  0  0  0  0  0  0  0  0  0  0  0
    0.3020   -4.9820    0.0000 C   0  0  2  0  0  0  0  0  0  0  0  0
   -0.1830   -5.6495    0.0000 O   0  0  0  0  0  0  0  0  0  0  0  0
    0.1526   -6.4032    0.0000 C   0  0  1  0  0  0  0  0  0  0  0  0
    0.9731   -6.4894    0.0000 C   0  0  2  0  0  0  0  0  0  0  0  0
    1.4580   -5.8220    0.0000 O   0  0  0  0  0  0  0  0  0  0  0  0
    1.3086   -7.2431    0.0000 C   0  0  1  0  0  0  0  0  0  0  0  0
    2.1291   -7.3293    0.0000 N   0  0  0  0  0  0  0  0  0  0  0  0
    0.8237   -7.9105    0.0000 C   0  0  0  0  0  0  0  0  0  0  0  0
    0.0032   -7.8243    0.0000 C   0  0  1  0  0  0  0  0  0  0  0  0
   -0.4817   -8.4917    0.0000 N   0  0  0  0  0  0  0  0  0  0  0  0
   -0.3323   -7.0706    0.0000 C   0  0  2  0  0  0  0  0  0  0  0  0
   -1.1528   -6.9844    0.0000 O   0  0  0  0  0  0  0  0  0  0  0  0
   -1.6377   -7.6518    0.0000 C   0  0  2  0  0  0  0  0  0  0  0  0
   -1.3022   -8.4055    0.0000 O   0  0  0  0  0  0  0  0  0  0  0  0
   -1.7871   -9.0729    0.0000 C   0  0  2  0  0  0  0  0  0  0  0  0
   -1.4515   -9.8266    0.0000 C   0  0  0  0  0  0  0  0  0  0  0  0
   -0.6310   -9.9128    0.0000 N   0  0  0  0  0  0  0  0  0  0  0  0
   -2.6076   -8.9867    0.0000 C   0  0  1  0  0  0  0  0  0  0  0  0
   -3.0925   -9.6541    0.0000 O   0  0  0  0  0  0  0  0  0  0  0  0
   -2.9431   -8.2330    0.0000 C   0  0  1  0  0  0  0  0  0  0  0  0
   -3.7636   -8.1468    0.0000 O   0  0  0  0  0  0  0  0  0  0  0  0
   -2.4582   -7.5656    0.0000 C   0  0  1  0  0  0  0  0  0  0  0  0
   -2.7938   -6.8119    0.0000 N   0  0  0  0  0  0  0  0  0  0  0  0
    1.1270   -4.9820    0.0000 O   0  0  0  0  0  0  0  0  0  0  0  0
    1.3819   -4.1974    0.0000 C   0  0  2  0  0  0  0  0  0  0  0  0
    2.1665   -3.9425    0.0000 C   0  0  0  0  0  0  0  0  0  0  0  0
    2.7796   -4.4945    0.0000 O   0  0  0  0  0  0  0  0  0  0  0  0
    1.4289   -1.6500    0.0000 C   0  0  1  0  0  0  0  0  0  0  0  0
    0.7145   -1.2375    0.0000 N   0  0  0  0  0  0  0  0  0  0  0  0
    2.1434   -1.2375    0.0000 C   0  0  2  0  0  0  0  0  0  0  0  0
    2.1434   -0.4125    0.0000 O   0  0  0  0  0  0  0  0  0  0  0  0
    2.8579   -1.6500    0.0000 C   0  0  2  0  0  0  0  0  0  0  0  0
    3.5724   -1.2375    0.0000 O   0  0  0  0  0  0  0  0  0  0  0  0
  1  2  1  0  0  0  0
  3  2  1  6  0  0  0
  3  4  1  0  0  0  0
  4  5  1  0  0  0  0
  5  6  1  1  0  0  0
  7  6  1  6  0  0  0
  7  8  1  0  0  0  0
  8  9  1  1  0  0  0
  8 10  1  0  0  0  0
 10 11  1  1  0  0  0
 12 11  1  1  0  0  0
 12 13  1  0  0  0  0
 13 14  1  6  0  0  0
 13 15  1  0  0  0  0
 15 16  1  1  0  0  0
 15 17  1  0  0  0  0
 17 18  1  0  0  0  0
 18 19  1  1  0  0  0
 18 20  1  0  0  0  0
 12 20  1  0  0  0  0
 20 21  1  6  0  0  0
 22 21  1  6  0  0  0
 22 23  1  0  0  0  0
 23 24  1  0  0  0  0
 24 25  1  6  0  0  0
 25 26  1  0  0  0  0
 24 27  1  0  0  0  0
 27 28  1  1  0  0  0
 27 29  1  0  0  0  0
 29 30  1  1  0  0  0
 29 31  1  0  0  0  0
 22 31  1  0  0  0  0
 31 32  1  1  0  0  0
 10 33  1  0  0  0  0
 33 34  1  0  0  0  0
  7 34  1  0  0  0  0
 34 35  1  1  0  0  0
 35 36  1  0  0  0  0
  5 37  1  0  0  0  0
 37 38  1  1  0  0  0
 37 39  1  0  0  0  0
 39 40  1  6  0  0  0
 39 41  1  0  0  0  0
  3 41  1  0  0  0  0
 41 42  1  6  0  0  0
M  END

> <ChembankId>
713

> <SMILES>
NC[C@@H]1O[C@@H](O[C@H]2[C@H](O)[C@H](O[C@H]3[C@H](O)[C@@H](N)C[C@@H](N)[C@@H]3O[C@@H]4O[C@H](CN)[C@@H](O)[C@@H](O)[C@H]4N)O[C@@H]2CO)[C@@H](N)[C@H](O)[C@@H]1O

> <InChI>
1/C23H46N6O13/c24-2-7-13(32)15(34)10(28)21(37-7)40-18-6(27)1-5(26)12(31)20(18)42-23-17(36)19(9(4-30)39-23)41-22-11(29)16(35)14(33)8(3-25)38-22/h5-23,30-36H,1-4,24-29H2

$$$$
754
  Marvin  11101114192D          

 25 26  0  0  0  0            999 V2000
   -3.8743   -2.5855    0.0000 C   0  0  0  0  0  0  0  0  0  0  0  0
   -4.2868   -3.3000    0.0000 C   0  0  0  0  0  0  0  0  0  0  0  0
   -4.6993   -4.0145    0.0000 C   0  0  0  0  0  0  0  0  0  0  0  0
   -3.5724   -3.7125    0.0000 O   0  0  0  0  0  0  0  0  0  0  0  0
   -2.8579   -3.3000    0.0000 C   0  0  0  0  0  0  0  0  0  0  0  0
   -2.8579   -2.4750    0.0000 C   0  0  0  0  0  0  0  0  0  0  0  0
   -2.1434   -2.0625    0.0000 C   0  0  0  0  0  0  0  0  0  0  0  0
   -1.4289   -2.4750    0.0000 C   0  0  0  0  0  0  0  0  0  0  0  0
   -0.7145   -2.0625    0.0000 C   0  0  0  0  0  0  0  0  0  0  0  0
    0.0000   -2.4750    0.0000 C   0  0  0  0  0  0  0  0  0  0  0  0
    0.7145   -2.0625    0.0000 N   0  0  0  0  0  0  0  0  0  0  0  0
    1.4289   -2.4750    0.0000 C   0  0  0  0  0  0  0  0  0  0  0  0
    1.4289   -3.3000    0.0000 O   0  0  0  0  0  0  0  0  0  0  0  0
    2.1434   -2.0625    0.0000 C   0  0  0  0  0  0  0  0  0  0  0  0
    2.1434   -1.2375    0.0000 C   0  0  0  0  0  0  0  0  0  0  0  0
    2.8579   -0.8250    0.0000 C   0  0  0  0  0  0  0  0  0  0  0  0
    3.5724   -1.2375    0.0000 C   0  0  0  0  0  0  0  0  0  0  0  0
    4.2868   -0.8250    0.0000 Cl  0  0  0  0  0  0  0  0  0  0  0  0
    3.5724   -2.0625    0.0000 C   0  0  0  0  0  0  0  0  0  0  0  0
    2.8579   -2.4750    0.0000 C   0  0  0  0  0  0  0  0  0  0  0  0
   -1.4289   -3.3000    0.0000 C   0  0  0  0  0  0  0  0  0  0  0  0
   -2.1434   -3.7125    0.0000 C   0  0  0  0  0  0  0  0  0  0  0  0
   -5.0013   -2.8875    0.0000 C   0  0  0  0  0  0  0  0  0  0  0  0
   -5.7158   -3.3000    0.0000 O   0  0  0  0  0  0  0  0  0  0  0  0
   -5.0013   -2.0625    0.0000 O   0  0  0  0  0  0  0  0  0  0  0  0
  1  2  1  0  0  0  0
  2  3  1  0  0  0  0
  2  4  1  0  0  0  0
  4  5  1  0  0  0  0
  5  6  4  0  0  0  0
  6  7  4  0  0  0  0
  7  8  4  0  0  0  0
  8  9  1  0  0  0  0
  9 10  1  0  0  0  0
 10 11  1  0  0  0  0
 11 12  1  0  0  0  0
 12 13  2  0  0  0  0
 12 14  1  0  0  0  0
 14 15  1  0  0  0  0
 15 16  2  0  0  0  0
 16 17  1  0  0  0  0
 17 18  2  0  0  0  0
 17 19  1  0  0  0  0
 19 20  2  0  0  0  0
 14 20  1  0  0  0  0
  8 21  4  0  0  0  0
 21 22  4  0  0  0  0
  5 22  4  0  0  0  0
  2 23  1  0  0  0  0
 23 24  2  0  0  0  0
 23 25  1  0  0  0  0
M  END

> <ChembankId>
754

> <SMILES>
CC(C)(Oc1ccc(CCNC(=O)C2C=CC(=Cl)C=C2)cc1)C(=O)O

> <InChI>
1/C19H22ClNO4/c1-19(2,18(23)24)25-16-9-3-13(4-10-16)11-12-21-17(22)14-5-7-15(20)8-6-14/h3-10,14,20H,11-12H2,1-2H3,(H,21,22)(H,23,24)

$$$$
781
  Marvin  11101114192D          

 46 52  0  0  1  0            999 V2000
   -1.4792   -2.7988    0.0000 C   0  0  0  0  0  0  0  0  0  0  0  0
   -1.0964   -2.0343    0.0000 C   0  0  0  0  0  0  0  0  0  0  0  0
   -0.5438   -1.2514    0.0000 N   0  0  0  0  0  0  0  0  0  0  0  0
   -1.3257   -0.5880    0.0000 C   0  0  0  0  0  0  0  0  0  0  0  0
   -1.2417    0.3580    0.0000 C   0  0  1  0  0  0  0  0  0  0  0  0
   -1.5888    1.1702    0.0000 C   0  0  0  0  0  0  0  0  0  0  0  0
   -1.7055    2.0087    0.0000 O   0  0  0  0  0  0  0  0  0  0  0  0
   -2.4615    2.3503    0.0000 C   0  0  0  0  0  0  0  0  0  0  0  0
   -0.3664    0.3462    0.0000 C   0  0  0  0  0  0  0  0  0  0  0  0
   -0.2701   -0.6115    0.0000 C   0  0  1  0  0  0  0  0  0  0  0  0
   -1.1472   -1.1840    0.0000 O   0  0  0  0  0  0  0  0  0  0  0  0
   -1.9521   -1.5600    0.0000 C   0  0  0  0  0  0  0  0  0  0  0  0
    0.6691   -1.0266    0.0000 C   0  0  1  0  0  0  0  0  0  0  0  0
    0.0170   -1.0293    0.0000 C   0  0  0  0  0  0  0  0  0  0  0  0
    0.1010   -0.0473    0.0000 C   0  0  2  0  0  0  0  0  0  0  0  0
    0.8986    0.5013    0.0000 C   0  0  0  0  0  0  0  0  0  0  0  0
    1.5870    1.1487    0.0000 C   0  0  0  0  0  0  0  0  0  0  0  0
    2.5363    0.6262    0.0000 C   0  0  1  0  0  0  0  0  0  0  0  0
    3.1422    1.2403    0.0000 O   0  0  0  0  0  0  0  0  0  0  0  0
    2.0329    0.8360    0.0000 C   0  0  2  0  0  0  0  0  0  0  0  0
    2.0200   -0.0349    0.0000 O   0  0  0  0  0  0  0  0  0  0  0  0
    1.0931   -0.2560    0.0000 C   0  0  0  0  0  0  0  0  0  0  0  0
    1.2078   -1.2006    0.0000 O   0  0  0  0  0  0  0  0  0  0  0  0
    1.0195    0.7559    0.0000 C   0  0  0  0  0  0  0  0  0  0  0  0
    0.1953    0.7940    0.0000 C   0  0  0  0  0  0  0  0  0  0  0  0
   -0.1838    1.5267    0.0000 C   0  0  0  0  0  0  0  0  0  0  0  0
    0.2613    2.2214    0.0000 C   0  0  0  0  0  0  0  0  0  0  0  0
    1.0854    2.1833    0.0000 C   0  0  0  0  0  0  0  0  0  0  0  0
    1.4645    1.4506    0.0000 C   0  0  0  0  0  0  0  0  0  0  0  0
    1.4925    0.0439    0.0000 C   0  0  0  0  0  0  0  0  0  0  0  0
    1.5662   -0.7695    0.0000 C   0  0  1  0  0  0  0  0  0  0  0  0
    1.7629   -1.6907    0.0000 O   0  0  0  0  0  0  0  0  0  0  0  0
    1.5918   -2.5416    0.0000 C   0  0  0  0  0  0  0  0  0  0  0  0
    2.1172   -3.1956    0.0000 O   0  0  0  0  0  0  0  0  0  0  0  0
    1.0230   -3.1625    0.0000 C   0  0  0  0  0  0  0  0  0  0  0  0
    2.4346   -0.8456    0.0000 C   0  0  1  0  0  0  0  0  0  0  0  0
    3.0317   -1.4589    0.0000 O   0  0  0  0  0  0  0  0  0  0  0  0
    2.9542   -0.1597    0.0000 C   0  0  2  0  0  0  0  0  0  0  0  0
    3.8028   -0.0886    0.0000 O   0  0  0  0  0  0  0  0  0  0  0  0
    4.5651    0.2611    0.0000 C   0  0  0  0  0  0  0  0  0  0  0  0
   -0.7653   -0.5455    0.0000 C   0  0  0  0  0  0  0  0  0  0  0  0
   -1.6232    0.0823    0.0000 C   0  0  0  0  0  0  0  0  0  0  0  0
   -1.8442   -0.4624    0.0000 C   0  0  1  0  0  0  0  0  0  0  0  0
   -2.7041   -0.4091    0.0000 O   0  0  0  0  0  0  0  0  0  0  0  0
   -0.4623   -1.6826    0.0000 O   0  0  0  0  0  0  0  0  0  0  0  0
   -0.2643   -2.5311    0.0000 C   0  0  0  0  0  0  0  0  0  0  0  0
  1  2  1  0  0  0  0
  2  3  1  0  0  0  0
  3  4  1  0  0  0  0
  4  5  1  0  0  0  0
  5  6  1  1  0  0  0
  6  7  1  0  0  0  0
  7  8  1  0  0  0  0
  5  9  1  0  0  0  0
  9 10  1  0  0  0  0
 10 11  1  6  0  0  0
 11 12  1  0  0  0  0
 10 13  1  0  0  0  0
 13 14  1  6  0  0  0
  3 14  1  0  0  0  0
 14 15  1  0  0  0  0
  9 15  1  0  0  0  0
 15 16  1  0  0  0  0
 16 17  1  0  0  0  0
 17 18  1  0  0  0  0
 18 19  1  6  0  0  0
 18 20  1  0  0  0  0
 20 21  1  1  0  0  0
 21 22  1  0  0  0  0
 22 23  2  0  0  0  0
 22 24  1  0  0  0  0
 24 25  4  0  0  0  0
 25 26  4  0  0  0  0
 26 27  4  0  0  0  0
 27 28  4  0  0  0  0
 28 29  4  0  0  0  0
 24 29  4  0  0  0  0
 20 30  1  0  0  0  0
 16 30  1  0  0  0  0
 30 31  1  0  0  0  0
 13 31  1  0  0  0  0
 31 32  1  1  0  0  0
 32 33  1  0  0  0  0
 33 34  2  0  0  0  0
 33 35  1  0  0  0  0
 31 36  1  0  0  0  0
 36 37  1  6  0  0  0
 36 38  1  0  0  0  0
 18 38  1  0  0  0  0
 38 39  1  1  0  0  0
 39 40  1  0  0  0  0
 15 41  1  6  0  0  0
 41 42  1  0  0  0  0
 42 43  1  0  0  0  0
  5 43  1  0  0  0  0
 43 44  1  6  0  0  0
 41 45  1  0  0  0  0
 45 46  1  0  0  0  0
M  END

> <ChembankId>
781

> <SMILES>
CCN1C[C@@]2(COC)C3[C@@H](OC)[C@H]4C1[C@@]3(C5C[C@@]6(O)[C@H](OC(=O)c7ccccc7)C5[C@]4(OC(=O)C)[C@@H](O)[C@@H]6OC)C(C[C@H]2O)OC

> <InChI>
1/C34H47NO11/c1-7-35-15-31(16-41-3)20(37)13-21(42-4)33-19-14-32(40)28(45-30(39)18-11-9-8-10-12-18)22(19)34(46-17(2)36,27(38)29(32)44-6)23(26(33)35)24(43-5)25(31)33/h8-12,19-29,37-38,40H,7,13-16H2,1-6H3

$$$$
787
  Marvin  11101114192D          

 44 48  0  0  1  0            999 V2000
   -5.8795   -0.4789    0.0000 C   0  0  0  0  0  0  0  0  0  0  0  0
   -5.6660    0.3179    0.0000 C   0  0  0  0  0  0  0  0  0  0  0  0
   -4.8691    0.5315    0.0000 N   0  0  0  0  0  0  0  0  0  0  0  0
   -4.6556    1.3284    0.0000 C   0  0  0  0  0  0  0  0  0  0  0  0
   -3.8587    1.5419    0.0000 C   0  0  0  0  0  0  0  0  0  0  0  0
   -3.2753    0.9585    0.0000 N   0  0  0  0  0  0  0  0  0  0  0  0
   -2.4784    1.1721    0.0000 C   0  0  0  0  0  0  0  0  0  0  0  0
   -2.2649    1.9689    0.0000 O   0  0  0  0  0  0  0  0  0  0  0  0
   -1.8950    0.5887    0.0000 N   0  0  0  0  0  0  0  0  0  0  0  0
   -1.0982    0.8022    0.0000 C   0  0  0  0  0  0  0  0  0  0  0  0
   -0.5148    0.2189    0.0000 C   0  0  0  0  0  0  0  0  0  0  0  0
   -0.7283   -0.5780    0.0000 O   0  0  0  0  0  0  0  0  0  0  0  0
    0.2821    0.4324    0.0000 N   0  0  0  0  0  0  0  0  0  0  0  0
    0.8655   -0.1510    0.0000 C   0  0  1  0  0  0  0  0  0  0  0  0
    1.6905   -0.1510    0.0000 C   0  0  0  0  0  0  0  0  0  0  0  0
    2.4049    0.2615    0.0000 S   0  0  0  0  0  0  0  0  0  0  0  0
    3.1194   -0.1510    0.0000 C   0  0  0  0  0  0  0  0  0  0  0  0
    3.1194   -0.9760    0.0000 C   0  0  0  0  0  0  0  0  0  0  0  0
    2.4049   -1.3885    0.0000 C   0  0  0  0  0  0  0  0  0  0  0  0
    1.6905   -0.9760    0.0000 N   0  0  0  0  0  0  0  0  0  0  0  0
    0.8655   -0.9760    0.0000 C   0  0  0  0  0  0  0  0  0  0  0  0
    0.2821   -1.5593    0.0000 O   0  0  0  0  0  0  0  0  0  0  0  0
    2.4049   -2.2135    0.0000 C   0  0  0  0  0  0  0  0  0  0  0  0
    1.6905   -2.6260    0.0000 O   0  0  0  0  0  0  0  0  0  0  0  0
    3.1194   -2.6260    0.0000 O   0  0  0  0  0  0  0  0  0  0  0  0
    3.8339   -1.3885    0.0000 C   0  0  0  0  0  0  0  0  0  0  0  0
    4.5483   -0.9760    0.0000 S   0  0  0  0  0  0  0  0  0  0  0  0
    5.2628   -1.3885    0.0000 C   0  0  0  0  0  0  0  0  0  0  0  0
    6.0165   -1.0529    0.0000 N   0  0  0  0  0  0  0  0  0  0  0  0
    6.5685   -1.6660    0.0000 N   0  0  0  0  0  0  0  0  0  0  0  0
    6.1560   -2.3805    0.0000 N   0  0  0  0  0  0  0  0  0  0  0  0
    5.3490   -2.2090    0.0000 N   0  0  0  0  0  0  0  0  0  0  0  0
    4.7360   -2.7610    0.0000 C   0  0  0  0  0  0  0  0  0  0  0  0
   -0.8846    1.5991    0.0000 C   0  0  0  0  0  0  0  0  0  0  0  0
   -1.4680    2.1825    0.0000 C   0  0  0  0  0  0  0  0  0  0  0  0
   -1.2545    2.9794    0.0000 C   0  0  0  0  0  0  0  0  0  0  0  0
   -0.4576    3.1929    0.0000 C   0  0  0  0  0  0  0  0  0  0  0  0
   -0.2441    3.9898    0.0000 O   0  0  0  0  0  0  0  0  0  0  0  0
    0.1258    2.6095    0.0000 C   0  0  0  0  0  0  0  0  0  0  0  0
   -0.0877    1.8126    0.0000 C   0  0  0  0  0  0  0  0  0  0  0  0
   -3.4888    0.1616    0.0000 C   0  0  0  0  0  0  0  0  0  0  0  0
   -2.9055   -0.4217    0.0000 O   0  0  0  0  0  0  0  0  0  0  0  0
   -4.2857   -0.0519    0.0000 C   0  0  0  0  0  0  0  0  0  0  0  0
   -4.4992   -0.8488    0.0000 O   0  0  0  0  0  0  0  0  0  0  0  0
  1  2  1  0  0  0  0
  2  3  1  0  0  0  0
  3  4  1  0  0  0  0
  4  5  1  0  0  0  0
  5  6  1  0  0  0  0
  6  7  1  0  0  0  0
  7  8  2  0  0  0  0
  7  9  1  0  0  0  0
  9 10  1  0  0  0  0
 10 11  1  0  0  0  0
 11 12  2  0  0  0  0
 11 13  1  0  0  0  0
 14 13  1  1  0  0  0
 14 15  1  0  0  0  0
 15 16  1  0  0  0  0
 16 17  1  0  0  0  0
 17 18  1  0  0  0  0
 18 19  2  0  0  0  0
 19 20  1  0  0  0  0
 15 20  1  0  0  0  0
 20 21  1  0  0  0  0
 14 21  1  0  0  0  0
 21 22  2  0  0  0  0
 19 23  1  0  0  0  0
 23 24  2  0  0  0  0
 23 25  1  0  0  0  0
 18 26  1  0  0  0  0
 26 27  1  0  0  0  0
 27 28  1  0  0  0  0
 28 29  4  0  0  0  0
 29 30  4  0  0  0  0
 30 31  4  0  0  0  0
 31 32  4  0  0  0  0
 28 32  4  0  0  0  0
 32 33  1  0  0  0  0
 10 34  1  0  0  0  0
 34 35  4  0  0  0  0
 35 36  4  0  0  0  0
 36 37  4  0  0  0  0
 37 38  1  0  0  0  0
 37 39  4  0  0  0  0
 39 40  4  0  0  0  0
 34 40  4  0  0  0  0
  6 41  1  0  0  0  0
 41 42  2  0  0  0  0
 41 43  1  0  0  0  0
  3 43  1  0  0  0  0
 43 44  2  0  0  0  0
M  END

> <ChembankId>
787

> <SMILES>
CCN1CCN(C(=O)NC(C(=O)N[C@H]2C3SCC(=C(N3C2=O)C(=O)O)CSc4nnnn4C)c5ccc(O)cc5)C(=O)C1=O

> <InChI>
1/C25H27N9O8S2/c1-3-32-8-9-33(21(39)20(32)38)24(42)27-15(12-4-6-14(35)7-5-12)18(36)26-16-19(37)34-17(23(40)41)13(10-43-22(16)34)11-44-25-28-29-30-31(25)2/h4-7,15-16,22,35H,3,8-11H2,1-2H3,(H,26,36)(H,27,42)(H,40,41)

$$$$
788
  Marvin  11101114192D          

 23 26  0  0  1  0            999 V2000
    3.6020    2.5559    0.0000 O   0  0  0  0  0  0  0  0  0  0  0  0
    4.0145    1.8414    0.0000 C   0  0  0  0  0  0  0  0  0  0  0  0
    4.8395    1.8414    0.0000 C   0  0  0  0  0  0  0  0  0  0  0  0
    5.2520    2.5559    0.0000 C   0  0  0  0  0  0  0  0  0  0  0  0
    6.0770    2.5559    0.0000 C   0  0  0  0  0  0  0  0  0  0  0  0
    6.4895    1.8414    0.0000 C   0  0  0  0  0  0  0  0  0  0  0  0
    6.0770    1.1270    0.0000 C   0  0  0  0  0  0  0  0  0  0  0  0
    5.2520    1.1270    0.0000 C   0  0  0  0  0  0  0  0  0  0  0  0
    3.6020    1.1270    0.0000 N   0  0  0  0  0  0  0  0  0  0  0  0
    2.7770    1.1270    0.0000 C   0  0  0  0  0  0  0  0  0  0  0  0
    2.3645    0.4125    0.0000 C   0  0  2  0  0  0  0  0  0  0  0  0
    2.7770   -0.3020    0.0000 N   0  0  0  0  0  0  0  0  0  0  0  0
    2.3645   -1.0164    0.0000 C   0  0  0  0  0  0  0  0  0  0  0  0
    1.5395   -1.0164    0.0000 C   0  0  0  0  0  0  0  0  0  0  0  0
    1.1270   -0.3020    0.0000 C   0  0  0  0  0  0  0  0  0  0  0  0
    0.3020   -0.3020    0.0000 C   0  0  0  0  0  0  0  0  0  0  0  0
   -0.1105    0.4125    0.0000 C   0  0  0  0  0  0  0  0  0  0  0  0
    0.3020    1.1270    0.0000 C   0  0  0  0  0  0  0  0  0  0  0  0
    1.1270    1.1270    0.0000 C   0  0  0  0  0  0  0  0  0  0  0  0
    1.5395    0.4125    0.0000 C   0  0  0  0  0  0  0  0  0  0  0  0
    3.6020   -0.3020    0.0000 C   0  0  0  0  0  0  0  0  0  0  0  0
    4.0145   -1.0164    0.0000 O   0  0  0  0  0  0  0  0  0  0  0  0
    4.0145    0.4125    0.0000 C   0  0  0  0  0  0  0  0  0  0  0  0
  1  2  2  0  0  0  0
  2  3  1  0  0  0  0
  3  4  1  0  0  0  0
  4  5  1  0  0  0  0
  5  6  1  0  0  0  0
  6  7  1  0  0  0  0
  7  8  1  0  0  0  0
  3  8  1  0  0  0  0
  2  9  1  0  0  0  0
  9 10  1  0  0  0  0
 10 11  1  0  0  0  0
 11 12  1  6  0  0  0
 12 13  1  0  0  0  0
 13 14  1  0  0  0  0
 14 15  1  0  0  0  0
 15 16  4  0  0  0  0
 16 17  4  0  0  0  0
 17 18  4  0  0  0  0
 18 19  4  0  0  0  0
 19 20  4  0  0  0  0
 11 20  1  0  0  0  0
 15 20  4  0  0  0  0
 12 21  1  0  0  0  0
 21 22  2  0  0  0  0
 21 23  1  0  0  0  0
  9 23  1  0  0  0  0
M  END

> <ChembankId>
788

> <SMILES>
O=C(C1CCCCC1)N2C[C@@H]3N(CCc4ccccc34)C(=O)C2

> <InChI>
1/C19H24N2O2/c22-18-13-20(19(23)15-7-2-1-3-8-15)12-17-16-9-5-4-6-14(16)10-11-21(17)18/h4-6,9,15,17H,1-3,7-8,10-13H2

$$$$
817
  Marvin  11101114192D          

 29 31  0  0  1  0            999 V2000
   -1.2545    2.9794    0.0000 C   0  0  0  0  0  0  0  0  0  0  0  0
   -1.4680    2.1825    0.0000 O   0  0  0  0  0  0  0  0  0  0  0  0
   -0.8846    1.5991    0.0000 N   0  0  0  0  0  0  0  0  0  0  0  0
   -1.0982    0.8022    0.0000 C   0  0  0  0  0  0  0  0  0  0  0  0
   -0.5148    0.2189    0.0000 C   0  0  0  0  0  0  0  0  0  0  0  0
   -0.7283   -0.5780    0.0000 O   0  0  0  0  0  0  0  0  0  0  0  0
    0.2821    0.4324    0.0000 N   0  0  0  0  0  0  0  0  0  0  0  0
    0.8655   -0.1510    0.0000 C   0  0  1  0  0  0  0  0  0  0  0  0
    1.6905   -0.1510    0.0000 C   0  0  0  0  0  0  0  0  0  0  0  0
    2.4049    0.2615    0.0000 S   0  0  0  0  0  0  0  0  0  0  0  0
    3.1194   -0.1510    0.0000 C   0  0  0  0  0  0  0  0  0  0  0  0
    3.1194   -0.9760    0.0000 C   0  0  0  0  0  0  0  0  0  0  0  0
    2.4049   -1.3885    0.0000 C   0  0  0  0  0  0  0  0  0  0  0  0
    1.6905   -0.9760    0.0000 N   0  0  0  0  0  0  0  0  0  0  0  0
    0.8655   -0.9760    0.0000 C   0  0  0  0  0  0  0  0  0  0  0  0
    0.2821   -1.5593    0.0000 O   0  0  0  0  0  0  0  0  0  0  0  0
    2.4049   -2.2135    0.0000 C   0  0  0  0  0  0  0  0  0  0  0  0
    1.6905   -2.6260    0.0000 O   0  0  0  0  0  0  0  0  0  0  0  0
    3.1194   -2.6260    0.0000 O   0  0  0  0  0  0  0  0  0  0  0  0
    3.8339   -1.3885    0.0000 C   0  0  0  0  0  0  0  0  0  0  0  0
    4.5483   -0.9760    0.0000 O   0  0  0  0  0  0  0  0  0  0  0  0
    5.2628   -1.3885    0.0000 C   0  0  0  0  0  0  0  0  0  0  0  0
    5.9773   -0.9760    0.0000 O   0  0  0  0  0  0  0  0  0  0  0  0
    5.2628   -2.2135    0.0000 N   0  0  0  0  0  0  0  0  0  0  0  0
   -1.8950    0.5887    0.0000 C   0  0  0  0  0  0  0  0  0  0  0  0
   -2.1907   -0.1815    0.0000 C   0  0  0  0  0  0  0  0  0  0  0  0
   -3.0146   -0.1383    0.0000 C   0  0  0  0  0  0  0  0  0  0  0  0
   -3.2281    0.6586    0.0000 C   0  0  0  0  0  0  0  0  0  0  0  0
   -2.5362    1.1079    0.0000 O   0  0  0  0  0  0  0  0  0  0  0  0
  1  2  1  0  0  0  0
  3  2  1  4  0  0  0
  3  4  2  0  0  0  0
  4  5  1  0  0  0  0
  5  6  2  0  0  0  0
  5  7  1  0  0  0  0
  8  7  1  1  0  0  0
  8  9  1  0  0  0  0
  9 10  1  0  0  0  0
 10 11  1  0  0  0  0
 11 12  1  0  0  0  0
 12 13  2  0  0  0  0
 13 14  1  0  0  0  0
  9 14  1  0  0  0  0
 14 15  1  0  0  0  0
  8 15  1  0  0  0  0
 15 16  2  0  0  0  0
 13 17  1  0  0  0  0
 17 18  2  0  0  0  0
 17 19  1  0  0  0  0
 12 20  1  0  0  0  0
 20 21  1  0  0  0  0
 21 22  1  0  0  0  0
 22 23  2  0  0  0  0
 22 24  1  0  0  0  0
  4 25  1  0  0  0  0
 25 26  4  0  0  0  0
 26 27  4  0  0  0  0
 27 28  4  0  0  0  0
 28 29  4  0  0  0  0
 25 29  4  0  0  0  0
M  END

> <ChembankId>
817

> <SMILES>
CON=C(C(=O)N[C@H]1C2SCC(=C(N2C1=O)C(=O)O)COC(=O)N)c3ccco3

> <InChI>
1/C16H16N4O8S/c1-26-19-9(8-3-2-4-27-8)12(21)18-10-13(22)20-11(15(23)24)7(5-28-16(17)25)6-29-14(10)20/h2-4,10,14H,5-6H2,1H3,(H2,17,25)(H,18,21)(H,23,24)

$$$$
851
  Marvin  11101114192D          

 31 34  0  0  1  0            999 V2000
    5.0610    1.7060    0.0000 C   0  0  0  0  0  0  0  0  0  0  0  0
    4.8895    0.8990    0.0000 N   0  0  0  0  0  0  0  0  0  0  0  0
    5.4415    0.2859    0.0000 N   0  0  0  0  0  0  0  0  0  0  0  0
    5.0290   -0.4285    0.0000 N   0  0  0  0  0  0  0  0  0  0  0  0
    4.2221   -0.2570    0.0000 N   0  0  0  0  0  0  0  0  0  0  0  0
    4.1358    0.5635    0.0000 C   0  0  0  0  0  0  0  0  0  0  0  0
    3.4214    0.9760    0.0000 S   0  0  0  0  0  0  0  0  0  0  0  0
    2.7069    0.5635    0.0000 C   0  0  0  0  0  0  0  0  0  0  0  0
    1.9924    0.9760    0.0000 C   0  0  0  0  0  0  0  0  0  0  0  0
    1.2780    0.5635    0.0000 C   0  0  0  0  0  0  0  0  0  0  0  0
    0.5635    0.9760    0.0000 N   0  0  0  0  0  0  0  0  0  0  0  0
    0.5635    1.8010    0.0000 C   0  0  0  0  0  0  0  0  0  0  0  0
    1.2780    2.2135    0.0000 S   0  0  0  0  0  0  0  0  0  0  0  0
    1.9924    1.8010    0.0000 C   0  0  0  0  0  0  0  0  0  0  0  0
   -0.2615    1.8010    0.0000 C   0  0  2  0  0  0  0  0  0  0  0  0
   -0.8449    2.3843    0.0000 N   0  0  0  0  0  0  0  0  0  0  0  0
   -0.6314    3.1812    0.0000 C   0  0  0  0  0  0  0  0  0  0  0  0
    0.1655    3.3948    0.0000 O   0  0  0  0  0  0  0  0  0  0  0  0
   -1.2147    3.7646    0.0000 C   0  0  0  0  0  0  0  0  0  0  0  0
   -1.0012    4.5615    0.0000 O   0  0  0  0  0  0  0  0  0  0  0  0
   -2.0116    3.5511    0.0000 C   0  0  0  0  0  0  0  0  0  0  0  0
   -2.2251    2.7542    0.0000 C   0  0  0  0  0  0  0  0  0  0  0  0
   -3.0220    2.5407    0.0000 C   0  0  0  0  0  0  0  0  0  0  0  0
   -3.6054    3.1240    0.0000 C   0  0  0  0  0  0  0  0  0  0  0  0
   -3.3919    3.9209    0.0000 C   0  0  0  0  0  0  0  0  0  0  0  0
   -2.5950    4.1344    0.0000 C   0  0  0  0  0  0  0  0  0  0  0  0
   -0.2615    0.9760    0.0000 C   0  0  0  0  0  0  0  0  0  0  0  0
   -0.8449    0.3926    0.0000 O   0  0  0  0  0  0  0  0  0  0  0  0
    1.2780   -0.2615    0.0000 C   0  0  0  0  0  0  0  0  0  0  0  0
    0.5635   -0.6740    0.0000 O   0  0  0  0  0  0  0  0  0  0  0  0
    1.9924   -0.6740    0.0000 O   0  0  0  0  0  0  0  0  0  0  0  0
  1  2  1  0  0  0  0
  2  3  4  0  0  0  0
  3  4  4  0  0  0  0
  4  5  4  0  0  0  0
  5  6  4  0  0  0  0
  2  6  4  0  0  0  0
  6  7  1  0  0  0  0
  7  8  1  0  0  0  0
  8  9  1  0  0  0  0
  9 10  2  0  0  0  0
 10 11  1  0  0  0  0
 11 12  1  0  0  0  0
 12 13  1  0  0  0  0
 13 14  1  0  0  0  0
  9 14  1  0  0  0  0
 12 15  1  0  0  0  0
 15 16  1  1  0  0  0
 16 17  1  0  0  0  0
 17 18  2  0  0  0  0
 17 19  1  0  0  0  0
 19 20  1  0  0  0  0
 19 21  1  0  0  0  0
 21 22  4  0  0  0  0
 22 23  4  0  0  0  0
 23 24  4  0  0  0  0
 24 25  4  0  0  0  0
 25 26  4  0  0  0  0
 21 26  4  0  0  0  0
 15 27  1  0  0  0  0
 11 27  1  0  0  0  0
 27 28  2  0  0  0  0
 10 29  1  0  0  0  0
 29 30  2  0  0  0  0
 29 31  1  0  0  0  0
M  END

> <ChembankId>
851

> <SMILES>
Cn1nnnc1SCC2=C(N3C(SC2)[C@H](NC(=O)C(O)c4ccccc4)C3=O)C(=O)O

> <InChI>
1/C18H18N6O5S2/c1-23-18(20-21-22-23)31-8-10-7-30-16-11(15(27)24(16)12(10)17(28)29)19-14(26)13(25)9-5-3-2-4-6-9/h2-6,11,13,16,25H,7-8H2,1H3,(H,19,26)(H,28,29)

$$$$
855
  Marvin  11101114192D          

 22 23  0  0  1  0            999 V2000
    2.8579   -4.9500    0.0000 C   0  0  0  0  0  0  0  0  0  0  0  0
    2.8579   -4.1250    0.0000 C   0  0  0  0  0  0  0  0  0  0  0  0
    2.1434   -3.7125    0.0000 C   0  0  0  0  0  0  0  0  0  0  0  0
    1.4289   -4.1250    0.0000 O   0  0  0  0  0  0  0  0  0  0  0  0
    0.7145   -3.7125    0.0000 C   0  0  0  0  0  0  0  0  0  0  0  0
    0.0000   -4.1250    0.0000 C   0  0  0  0  0  0  0  0  0  0  0  0
   -0.7145   -3.7125    0.0000 C   0  0  0  0  0  0  0  0  0  0  0  0
   -0.7145   -2.8875    0.0000 C   0  0  0  0  0  0  0  0  0  0  0  0
    0.0000   -2.4750    0.0000 C   0  0  0  0  0  0  0  0  0  0  0  0
    0.7145   -2.8875    0.0000 C   0  0  0  0  0  0  0  0  0  0  0  0
    3.5724   -3.7125    0.0000 N   0  0  0  0  0  0  0  0  0  0  0  0
    4.2868   -4.1250    0.0000 C   0  0  0  0  0  0  0  0  0  0  0  0
    4.2868   -4.9500    0.0000 C   0  0  0  0  0  0  0  0  0  0  0  0
    5.0013   -3.7125    0.0000 C   0  0  2  0  0  0  0  0  0  0  0  0
    5.0013   -2.8875    0.0000 O   0  0  0  0  0  0  0  0  0  0  0  0
    5.7158   -4.1250    0.0000 C   0  0  0  0  0  0  0  0  0  0  0  0
    6.4302   -3.7125    0.0000 C   0  0  0  0  0  0  0  0  0  0  0  0
    7.1447   -4.1250    0.0000 C   0  0  0  0  0  0  0  0  0  0  0  0
    7.1447   -4.9500    0.0000 C   0  0  0  0  0  0  0  0  0  0  0  0
    7.8592   -5.3625    0.0000 O   0  0  0  0  0  0  0  0  0  0  0  0
    6.4302   -5.3625    0.0000 C   0  0  0  0  0  0  0  0  0  0  0  0
    5.7158   -4.9500    0.0000 C   0  0  0  0  0  0  0  0  0  0  0  0
  1  2  1  0  0  0  0
  2  3  1  0  0  0  0
  3  4  1  0  0  0  0
  4  5  1  0  0  0  0
  5  6  4  0  0  0  0
  6  7  4  0  0  0  0
  7  8  4  0  0  0  0
  8  9  4  0  0  0  0
  9 10  4  0  0  0  0
  5 10  4  0  0  0  0
  2 11  1  0  0  0  0
 11 12  1  0  0  0  0
 12 13  1  0  0  0  0
 12 14  1  0  0  0  0
 14 15  1  6  0  0  0
 14 16  1  0  0  0  0
 16 17  4  0  0  0  0
 17 18  4  0  0  0  0
 18 19  4  0  0  0  0
 19 20  1  0  0  0  0
 19 21  4  0  0  0  0
 21 22  4  0  0  0  0
 16 22  4  0  0  0  0
M  END

> <ChembankId>
855

> <SMILES>
CC(COc1ccccc1)NC(C)[C@H](O)c2ccc(O)cc2

> <InChI>
1/C18H23NO3/c1-13(12-22-17-6-4-3-5-7-17)19-14(2)18(21)15-8-10-16(20)11-9-15/h3-11,13-14,18-21H,12H2,1-2H3

$$$$
908
  Marvin  11101114192D          

 65 67  0  0  1  0            999 V2000
    4.8177   -2.6509    0.0000 C   0  0  0  0  0  0  0  0  0  0  0  0
    4.0591   -2.9751    0.0000 C   0  0  1  0  0  0  0  0  0  0  0  0
    3.3990   -2.4803    0.0000 O   0  0  0  0  0  0  0  0  0  0  0  0
    2.6404   -2.8045    0.0000 C   0  0  0  0  0  0  0  0  0  0  0  0
    1.9803   -2.3096    0.0000 O   0  0  0  0  0  0  0  0  0  0  0  0
    2.0788   -1.4905    0.0000 C   0  0  0  0  0  0  0  0  0  0  0  0
    1.3202   -1.8147    0.0000 C   0  0  0  0  0  0  0  0  0  0  0  0
    0.6601   -1.3199    0.0000 C   0  0  0  0  0  0  0  0  0  0  0  0
    0.7586   -0.5008    0.0000 O   0  0  0  0  0  0  0  0  0  0  0  0
    0.0985   -0.0059    0.0000 C   0  0  1  0  0  0  0  0  0  0  0  0
   -0.5616    0.4890    0.0000 O   0  0  0  0  0  0  0  0  0  0  0  0
   -0.6601   -0.3301    0.0000 C   0  0  0  0  0  0  0  0  0  0  0  0
   -0.7586   -1.1492    0.0000 C   0  0  0  0  0  0  0  0  0  0  0  0
   -1.5172   -1.4735    0.0000 O   0  0  0  0  0  0  0  0  0  0  0  0
   -0.0985   -1.6441    0.0000 C   0  0  0  0  0  0  0  0  0  0  0  0
   -0.1970   -2.4632    0.0000 C   0  0  0  0  0  0  0  0  0  0  0  0
    0.4631   -2.9581    0.0000 O   0  0  0  0  0  0  0  0  0  0  0  0
   -0.9557   -2.7874    0.0000 O   0  0  0  0  0  0  0  0  0  0  0  0
    0.1970    0.8132    0.0000 C   0  0  0  0  0  0  0  0  0  0  0  0
    0.9557    1.1374    0.0000 C   0  0  0  0  0  0  0  0  0  0  0  0
    1.0542    1.9565    0.0000 O   0  0  0  0  0  0  0  0  0  0  0  0
    1.6158    0.6425    0.0000 C   0  0  0  0  0  0  0  0  0  0  0  0
    1.5172   -0.1765    0.0000 O   0  0  0  0  0  0  0  0  0  0  0  0
    2.3744    0.9668    0.0000 C   0  0  0  0  0  0  0  0  0  0  0  0
    3.0345    0.4719    0.0000 C   0  0  0  0  0  0  0  0  0  0  0  0
    3.7931    0.7961    0.0000 C   0  0  0  0  0  0  0  0  0  0  0  0
    3.8916    1.6152    0.0000 O   0  0  0  0  0  0  0  0  0  0  0  0
    4.4532    0.3013    0.0000 C   0  0  0  0  0  0  0  0  0  0  0  0
    5.2118    0.6255    0.0000 C   0  0  0  0  0  0  0  0  0  0  0  0
    5.3103    1.4446    0.0000 O   0  0  0  0  0  0  0  0  0  0  0  0
    5.8719    0.1306    0.0000 C   0  0  0  0  0  0  0  0  0  0  0  0
    6.6305    0.4548    0.0000 C   0  0  0  0  0  0  0  0  0  0  0  0
    6.7290    1.2739    0.0000 O   0  0  0  0  0  0  0  0  0  0  0  0
    7.2906   -0.0400    0.0000 C   0  0  0  0  0  0  0  0  0  0  0  0
    8.0492    0.2842    0.0000 C   0  0  0  0  0  0  0  0  0  0  0  0
    8.1478    1.1033    0.0000 O   0  0  0  0  0  0  0  0  0  0  0  0
    8.7093   -0.2107    0.0000 O   0  0  0  0  0  0  0  0  0  0  0  0
    9.4680    0.1135    0.0000 C   0  0  1  0  0  0  0  0  0  0  0  0
    9.5665    0.9326    0.0000 C   0  0  0  0  0  0  0  0  0  0  0  0
   10.1281   -0.3813    0.0000 C   0  0  2  0  0  0  0  0  0  0  0  0
   10.0295   -1.2004    0.0000 C   0  0  0  0  0  0  0  0  0  0  0  0
   10.8867   -0.0571    0.0000 C   0  0  2  0  0  0  0  0  0  0  0  0
   10.9852    0.7620    0.0000 O   0  0  0  0  0  0  0  0  0  0  0  0
   11.5468   -0.5520    0.0000 C   0  0  1  0  0  0  0  0  0  0  0  0
   12.3054   -0.2277    0.0000 C   0  0  0  0  0  0  0  0  0  0  0  0
   11.4483   -1.3711    0.0000 C   0  0  0  0  0  0  0  0  0  0  0  0
   10.6896   -1.6953    0.0000 C   0  0  0  0  0  0  0  0  0  0  0  0
   10.5911   -2.5144    0.0000 C   0  0  0  0  0  0  0  0  0  0  0  0
    9.8325   -2.8386    0.0000 C   0  0  0  0  0  0  0  0  0  0  0  0
    9.1724   -2.3437    0.0000 C   0  0  0  0  0  0  0  0  0  0  0  0
    8.4138   -2.6680    0.0000 C   0  0  0  0  0  0  0  0  0  0  0  0
    7.7537   -2.1731    0.0000 C   0  0  0  0  0  0  0  0  0  0  0  0
    6.9951   -2.4973    0.0000 C   0  0  0  0  0  0  0  0  0  0  0  0
    6.3350   -2.0025    0.0000 C   0  0  0  0  0  0  0  0  0  0  0  0
    5.5763   -2.3267    0.0000 C   0  0  0  0  0  0  0  0  0  0  0  0
    4.9162   -1.8318    0.0000 C   0  0  0  0  0  0  0  0  0  0  0  0
    4.1576   -2.1560    0.0000 C   0  0  0  0  0  0  0  0  0  0  0  0
    3.4975   -1.6612    0.0000 C   0  0  0  0  0  0  0  0  0  0  0  0
    2.7389   -1.9854    0.0000 C   0  0  0  0  0  0  0  0  0  0  0  0
    2.5419   -3.6236    0.0000 C   0  0  1  0  0  0  0  0  0  0  0  0
    1.7832   -3.9478    0.0000 O   0  0  0  0  0  0  0  0  0  0  0  0
    3.2020   -4.1184    0.0000 C   0  0  1  0  0  0  0  0  0  0  0  0
    3.1034   -4.9375    0.0000 N   0  0  0  0  0  0  0  0  0  0  0  0
    3.9606   -3.7942    0.0000 C   0  0  2  0  0  0  0  0  0  0  0  0
    4.6207   -4.2891    0.0000 O   0  0  0  0  0  0  0  0  0  0  0  0
  2  1  1  6  0  0  0
  2  3  1  0  0  0  0
  3  4  1  0  0  0  0
  4  5  1  0  0  0  0
  5  6  1  0  0  0  0
  6  7  1  0  0  0  0
  7  8  1  0  0  0  0
  8  9  1  0  0  0  0
  9 10  1  0  0  0  0
 10 11  1  6  0  0  0
 10 12  1  0  0  0  0
 12 13  1  0  0  0  0
 13 14  1  0  0  0  0
 13 15  1  0  0  0  0
  8 15  1  0  0  0  0
 15 16  1  0  0  0  0
 16 17  2  0  0  0  0
 16 18  1  0  0  0  0
 10 19  1  0  0  0  0
 19 20  1  0  0  0  0
 20 21  1  0  0  0  0
 20 22  1  0  0  0  0
 22 23  1  0  0  0  0
 22 24  1  0  0  0  0
 24 25  1  0  0  0  0
 25 26  1  0  0  0  0
 26 27  1  0  0  0  0
 26 28  1  0  0  0  0
 28 29  1  0  0  0  0
 29 30  1  0  0  0  0
 29 31  1  0  0  0  0
 31 32  1  0  0  0  0
 32 33  1  0  0  0  0
 32 34  1  0  0  0  0
 34 35  1  0  0  0  0
 35 36  2  0  0  0  0
 35 37  1  0  0  0  0
 37 38  1  0  0  0  0
 38 39  1  1  0  0  0
 38 40  1  0  0  0  0
 40 41  1  1  0  0  0
 40 42  1  0  0  0  0
 42 43  1  6  0  0  0
 42 44  1  0  0  0  0
 44 45  1  1  0  0  0
 44 46  1  0  0  0  0
 46 47  2  0  0  0  0
 47 48  1  4  0  0  0
 48 49  2  0  0  0  0
 49 50  1  4  0  0  0
 50 51  1  0  0  0  0
 52 51  1  4  0  0  0
 52 53  2  0  0  0  0
 54 53  1  4  0  0  0
 54 55  2  0  0  0  0
 56 55  1  4  0  0  0
 56 57  2  0  0  0  0
 58 57  1  4  0  0  0
 58 59  2  0  0  0  0
  6 59  1  0  0  0  0
  4 60  1  0  0  0  0
 60 61  1  6  0  0  0
 60 62  1  0  0  0  0
 62 63  1  6  0  0  0
 62 64  1  0  0  0  0
  2 64  1  0  0  0  0
 64 65  1  1  0  0  0
M  END

> <ChembankId>
908

> <SMILES>
C[C@H]1OC(OC2CC3O[C@@](O)(CC(O)C3C(=O)O)CC(O)C(O)CCC(O)CC(O)CC(O)CC(=O)O[C@@H](C)[C@H](C)[C@H](O)[C@@H](C)C=CC=CCCC=CC=CC=CC=C2)[C@@H](O)[C@@H](N)[C@@H]1O

> <InChI>
1/C47H75NO17/c1-27-17-15-13-11-9-7-5-6-8-10-12-14-16-18-34(64-46-44(58)41(48)43(57)30(4)63-46)24-38-40(45(59)60)37(54)26-47(61,65-38)25-36(53)35(52)20-19-31(49)21-32(50)22-33(51)23-39(55)62-29(3)28(2)42(27)56/h5-6,8,10-18,27-38,40-44,46,49-54,56-58,61H,7,9,19-26,48H2,1-4H3,(H,59,60)

$$$$
947
  Marvin  11101114192D          

 40 42  0  0  1  0            999 V2000
   -4.2868   -0.0000    0.0000 N   0  0  0  0  0  0  0  0  0  0  0  0
   -3.5724   -0.4125    0.0000 C   0  0  0  0  0  0  0  0  0  0  0  0
   -2.8579   -0.0000    0.0000 C   0  0  0  0  0  0  0  0  0  0  0  0
   -2.1434   -0.4125    0.0000 C   0  0  1  0  0  0  0  0  0  0  0  0
   -2.1434   -1.2375    0.0000 O   0  0  0  0  0  0  0  0  0  0  0  0
   -1.4289   -0.0000    0.0000 C   0  0  0  0  0  0  0  0  0  0  0  0
   -1.4289    0.8250    0.0000 O   0  0  0  0  0  0  0  0  0  0  0  0
   -0.7145   -0.4125    0.0000 N   0  0  0  0  0  0  0  0  0  0  0  0
   -0.7145   -1.2375    0.0000 C   0  0  2  0  0  0  0  0  0  0  0  0
   -1.4289   -1.6500    0.0000 C   0  0  0  0  0  0  0  0  0  0  0  0
   -1.4289   -2.4750    0.0000 C   0  0  2  0  0  0  0  0  0  0  0  0
   -2.1434   -2.8875    0.0000 N   0  0  0  0  0  0  0  0  0  0  0  0
   -0.7145   -2.8875    0.0000 C   0  0  1  0  0  0  0  0  0  0  0  0
   -0.7145   -3.7125    0.0000 O   0  0  0  0  0  0  0  0  0  0  0  0
   -0.0000   -4.1250    0.0000 C   0  0  1  0  0  0  0  0  0  0  0  0
    0.7145   -3.7125    0.0000 O   0  0  0  0  0  0  0  0  0  0  0  0
    1.4289   -4.1250    0.0000 C   0  0  2  0  0  0  0  0  0  0  0  0
    2.1434   -3.7125    0.0000 C   0  0  0  0  0  0  0  0  0  0  0  0
    2.1434   -2.8875    0.0000 N   0  0  0  0  0  0  0  0  0  0  0  0
    1.4289   -4.9500    0.0000 C   0  0  1  0  0  0  0  0  0  0  0  0
    2.1434   -5.3625    0.0000 O   0  0  0  0  0  0  0  0  0  0  0  0
    0.7145   -5.3625    0.0000 C   0  0  2  0  0  0  0  0  0  0  0  0
    0.7145   -6.1875    0.0000 O   0  0  0  0  0  0  0  0  0  0  0  0
   -0.0000   -4.9500    0.0000 C   0  0  1  0  0  0  0  0  0  0  0  0
   -0.7145   -5.3625    0.0000 O   0  0  0  0  0  0  0  0  0  0  0  0
   -0.0000   -2.4750    0.0000 C   0  0  2  0  0  0  0  0  0  0  0  0
    0.7145   -2.8875    0.0000 O   0  0  0  0  0  0  0  0  0  0  0  0
   -0.0000   -1.6500    0.0000 C   0  0  1  0  0  0  0  0  0  0  0  0
    0.7145   -1.2375    0.0000 O   0  0  0  0  0  0  0  0  0  0  0  0
    0.7145   -0.4125    0.0000 C   0  0  1  0  0  0  0  0  0  0  0  0
    0.0000   -0.0000    0.0000 O   0  0  0  0  0  0  0  0  0  0  0  0
    0.0000    0.8250    0.0000 C   0  0  2  0  0  0  0  0  0  0  0  0
   -0.7145    1.2375    0.0000 C   0  0  0  0  0  0  0  0  0  0  0  0
   -0.7145    2.0625    0.0000 O   0  0  0  0  0  0  0  0  0  0  0  0
    0.7145    1.2375    0.0000 C   0  0  1  0  0  0  0  0  0  0  0  0
    0.7145    2.0625    0.0000 O   0  0  0  0  0  0  0  0  0  0  0  0
    1.4289    0.8250    0.0000 C   0  0  2  0  0  0  0  0  0  0  0  0
    2.1434    1.2375    0.0000 N   0  0  0  0  0  0  0  0  0  0  0  0
    1.4289   -0.0000    0.0000 C   0  0  1  0  0  0  0  0  0  0  0  0
    2.1434   -0.4125    0.0000 O   0  0  0  0  0  0  0  0  0  0  0  0
  1  2  1  0  0  0  0
  2  3  1  0  0  0  0
  3  4  1  0  0  0  0
  4  5  1  6  0  0  0
  4  6  1  0  0  0  0
  6  7  2  0  0  0  0
  6  8  1  0  0  0  0
  9  8  1  1  0  0  0
  9 10  1  0  0  0  0
 10 11  1  0  0  0  0
 11 12  1  1  0  0  0
 11 13  1  0  0  0  0
 13 14  1  6  0  0  0
 15 14  1  1  0  0  0
 15 16  1  0  0  0  0
 16 17  1  0  0  0  0
 17 18  1  6  0  0  0
 18 19  1  0  0  0  0
 17 20  1  0  0  0  0
 20 21  1  1  0  0  0
 20 22  1  0  0  0  0
 22 23  1  6  0  0  0
 22 24  1  0  0  0  0
 15 24  1  0  0  0  0
 24 25  1  1  0  0  0
 13 26  1  0  0  0  0
 26 27  1  1  0  0  0
 26 28  1  0  0  0  0
  9 28  1  0  0  0  0
 28 29  1  6  0  0  0
 30 29  1  1  0  0  0
 30 31  1  0  0  0  0
 31 32  1  0  0  0  0
 32 33  1  6  0  0  0
 33 34  1  0  0  0  0
 32 35  1  0  0  0  0
 35 36  1  1  0  0  0
 35 37  1  0  0  0  0
 37 38  1  6  0  0  0
 37 39  1  0  0  0  0
 30 39  1  0  0  0  0
 39 40  1  1  0  0  0
M  END

> <ChembankId>
947

> <SMILES>
NCC[C@@H](O)C(=O)N[C@@H]1C[C@H](N)[C@@H](O[C@H]2O[C@H](CN)[C@@H](O)[C@H](O)[C@H]2O)[C@H](O)[C@H]1O[C@H]3O[C@H](CO)[C@@H](O)[C@H](N)[C@H]3O

> <InChI>
1/C22H43N5O13/c23-2-1-8(29)20(36)27-7-3-6(25)18(39-22-16(34)15(33)13(31)9(4-24)37-22)17(35)19(7)40-21-14(32)11(26)12(30)10(5-28)38-21/h6-19,21-22,28-35H,1-5,23-26H2,(H,27,36)

$$$$
1015
  Marvin  11101114192D          

 25 27  0  0  1  0            999 V2000
   -2.3137    6.6970    0.0000 C   0  0  0  0  0  0  0  0  0  0  0  0
   -2.6882    5.9619    0.0000 C   0  0  0  0  0  0  0  0  0  0  0  0
   -3.3801    6.4113    0.0000 C   0  0  0  0  0  0  0  0  0  0  0  0
   -1.9180    5.6663    0.0000 S   0  0  0  0  0  0  0  0  0  0  0  0
   -1.9612    4.8424    0.0000 C   0  0  0  0  0  0  0  0  0  0  0  0
   -1.7477    4.0455    0.0000 C   0  0  2  0  0  0  0  0  0  0  0  0
   -1.0332    3.6330    0.0000 N   0  0  0  0  0  0  0  0  0  0  0  0
   -1.0332    2.8080    0.0000 C   0  0  0  0  0  0  0  0  0  0  0  0
   -1.7477    2.3955    0.0000 O   0  0  0  0  0  0  0  0  0  0  0  0
   -0.3187    2.3955    0.0000 C   0  0  0  0  0  0  0  0  0  0  0  0
    0.3957    2.8080    0.0000 N   0  0  0  0  0  0  0  0  0  0  0  0
    1.1102    2.3955    0.0000 C   0  0  0  0  0  0  0  0  0  0  0  0
   -0.3187    1.5705    0.0000 C   0  0  0  0  0  0  0  0  0  0  0  0
    0.3957    1.1580    0.0000 C   0  0  0  0  0  0  0  0  0  0  0  0
    0.3957    0.3330    0.0000 C   0  0  0  0  0  0  0  0  0  0  0  0
   -0.3187   -0.0795    0.0000 C   0  0  0  0  0  0  0  0  0  0  0  0
   -1.0332    0.3330    0.0000 C   0  0  0  0  0  0  0  0  0  0  0  0
   -1.0332    1.1580    0.0000 C   0  0  0  0  0  0  0  0  0  0  0  0
   -2.5446    3.8320    0.0000 C   0  0  0  0  0  0  0  0  0  0  0  0
   -2.9571    3.1175    0.0000 O   0  0  0  0  0  0  0  0  0  0  0  0
   -2.7581    4.6289    0.0000 N   0  0  0  0  0  0  0  0  0  0  0  0
   -3.2074    5.3208    0.0000 C   0  0  0  0  0  0  0  0  0  0  0  0
   -4.0313    5.3640    0.0000 C   0  0  0  0  0  0  0  0  0  0  0  0
   -4.4806    4.6721    0.0000 O   0  0  0  0  0  0  0  0  0  0  0  0
   -4.4058    6.0991    0.0000 O   0  0  0  0  0  0  0  0  0  0  0  0
  1  2  1  0  0  0  0
  2  3  1  0  0  0  0
  2  4  1  0  0  0  0
  4  5  1  0  0  0  0
  5  6  1  0  0  0  0
  6  7  1  6  0  0  0
  7  8  1  0  0  0  0
  8  9  2  0  0  0  0
  8 10  1  0  0  0  0
 10 11  1  0  0  0  0
 11 12  2  0  0  0  0
 10 13  1  0  0  0  0
 13 14  4  0  0  0  0
 14 15  4  0  0  0  0
 15 16  4  0  0  0  0
 16 17  4  0  0  0  0
 17 18  4  0  0  0  0
 13 18  4  0  0  0  0
  6 19  1  0  0  0  0
 19 20  2  0  0  0  0
 19 21  1  0  0  0  0
  5 21  1  0  0  0  0
 21 22  1  0  0  0  0
  2 22  1  0  0  0  0
 22 23  1  0  0  0  0
 23 24  2  0  0  0  0
 23 25  1  0  0  0  0
M  END

> <ChembankId>
1015

> <SMILES>
CC1(C)SC2[C@H](NC(=O)C(N=C)c3ccccc3)C(=O)N2C1C(=O)O

> <InChI>
1/C17H19N3O4S/c1-17(2)12(16(23)24)20-14(22)11(15(20)25-17)19-13(21)10(18-3)9-7-5-4-6-8-9/h4-8,10-12,15H,3H2,1-2H3,(H,19,21)(H,23,24)

$$$$
1032
  Marvin  11101114192D          

 22 23  0  0  1  0            999 V2000
    5.3501   -2.4848    0.0000 C   0  0  0  0  0  0  0  0  0  0  0  0
    6.1602   -2.6407    0.0000 C   0  0  0  0  0  0  0  0  0  0  0  0
    6.7003   -2.0171    0.0000 N   0  0  0  0  0  0  0  0  0  0  0  0
    6.4302   -1.2375    0.0000 C   0  0  0  0  0  0  0  0  0  0  0  0
    6.9703   -0.6139    0.0000 C   0  0  0  0  0  0  0  0  0  0  0  0
    7.5104   -2.1730    0.0000 C   0  0  0  0  0  0  0  0  0  0  0  0
    8.0505   -1.5493    0.0000 C   0  0  0  0  0  0  0  0  0  0  0  0
    8.8606   -1.7052    0.0000 C   0  0  0  0  0  0  0  0  0  0  0  0
    9.4007   -1.0816    0.0000 C   0  0  1  0  0  0  0  0  0  0  0  0
    9.1307   -0.3020    0.0000 C   0  0  0  0  0  0  0  0  0  0  0  0
   10.2109   -1.2375    0.0000 N   0  0  0  0  0  0  0  0  0  0  0  0
   10.7510   -0.6139    0.0000 C   0  0  0  0  0  0  0  0  0  0  0  0
   10.4809    0.1657    0.0000 C   0  0  0  0  0  0  0  0  0  0  0  0
   11.0210    0.7893    0.0000 C   0  0  0  0  0  0  0  0  0  0  0  0
   11.8311    0.6334    0.0000 N   0  0  0  0  0  0  0  0  0  0  0  0
   12.1012   -0.1461    0.0000 C   0  0  0  0  0  0  0  0  0  0  0  0
   12.9113   -0.3020    0.0000 C   0  0  0  0  0  0  0  0  0  0  0  0
   13.1814   -1.0816    0.0000 C   0  0  0  0  0  0  0  0  0  0  0  0
   13.9915   -1.2375    0.0000 Cl  0  0  0  0  0  0  0  0  0  0  0  0
   12.6413   -1.7052    0.0000 C   0  0  0  0  0  0  0  0  0  0  0  0
   11.8311   -1.5493    0.0000 C   0  0  0  0  0  0  0  0  0  0  0  0
   11.5611   -0.7698    0.0000 C   0  0  0  0  0  0  0  0  0  0  0  0
  1  2  1  0  0  0  0
  2  3  1  0  0  0  0
  3  4  1  0  0  0  0
  4  5  1  0  0  0  0
  3  6  1  0  0  0  0
  6  7  1  0  0  0  0
  7  8  1  0  0  0  0
  8  9  1  0  0  0  0
  9 10  1  1  0  0  0
  9 11  1  0  0  0  0
 11 12  1  0  0  0  0
 12 13  4  0  0  0  0
 13 14  4  0  0  0  0
 14 15  4  0  0  0  0
 15 16  4  0  0  0  0
 16 17  4  0  0  0  0
 17 18  4  0  0  0  0
 18 19  1  0  0  0  0
 18 20  4  0  0  0  0
 20 21  4  0  0  0  0
 21 22  4  0  0  0  0
 12 22  4  0  0  0  0
 16 22  4  0  0  0  0
M  END

> <ChembankId>
1032

> <SMILES>
CCN(CC)CCC[C@@H](C)Nc1ccnc2cc(Cl)ccc12

> <InChI>
1/C18H26ClN3/c1-4-22(5-2)12-6-7-14(3)21-17-10-11-20-18-13-15(19)8-9-16(17)18/h8-11,13-14H,4-7,12H2,1-3H3,(H,20,21)

$$$$
1074
  Marvin  11101114192D          

 32 34  0  0  1  0            999 V2000
    3.5108   -4.3205    0.0000 C   0  0  0  0  0  0  0  0  0  0  0  0
    4.2253   -3.9080    0.0000 C   0  0  0  0  0  0  0  0  0  0  0  0
    4.9398   -4.3205    0.0000 O   0  0  0  0  0  0  0  0  0  0  0  0
    5.6542   -3.9080    0.0000 C   0  0  0  0  0  0  0  0  0  0  0  0
    5.6542   -3.0830    0.0000 O   0  0  0  0  0  0  0  0  0  0  0  0
    6.3687   -4.3205    0.0000 O   0  0  0  0  0  0  0  0  0  0  0  0
    7.0832   -3.9080    0.0000 C   0  0  1  0  0  0  0  0  0  0  0  0
    7.0832   -3.0830    0.0000 C   0  0  0  0  0  0  0  0  0  0  0  0
    7.7976   -4.3205    0.0000 O   0  0  0  0  0  0  0  0  0  0  0  0
    8.5121   -3.9080    0.0000 C   0  0  0  0  0  0  0  0  0  0  0  0
    8.5121   -3.0830    0.0000 O   0  0  0  0  0  0  0  0  0  0  0  0
    9.2266   -4.3205    0.0000 C   0  0  0  0  0  0  0  0  0  0  0  0
    9.9803   -3.9849    0.0000 N   0  0  0  0  0  0  0  0  0  0  0  0
   10.5323   -4.5980    0.0000 C   0  0  0  0  0  0  0  0  0  0  0  0
   10.1198   -5.3125    0.0000 S   0  0  0  0  0  0  0  0  0  0  0  0
    9.3128   -5.1410    0.0000 C   0  0  0  0  0  0  0  0  0  0  0  0
    9.0497   -5.9229    0.0000 C   0  0  0  0  0  0  0  0  0  0  0  0
    8.5077   -5.3210    0.0000 C   0  0  0  0  0  0  0  0  0  0  0  0
   11.1454   -4.0460    0.0000 C   0  0  2  0  0  0  0  0  0  0  0  0
   11.9693   -4.0892    0.0000 N   0  0  0  0  0  0  0  0  0  0  0  0
   12.3438   -4.8243    0.0000 C   0  0  0  0  0  0  0  0  0  0  0  0
   11.8945   -5.5162    0.0000 O   0  0  0  0  0  0  0  0  0  0  0  0
   13.1677   -4.8674    0.0000 C   0  0  2  0  0  0  0  0  0  0  0  0
   13.6170   -4.1755    0.0000 N   0  0  0  0  0  0  0  0  0  0  0  0
   13.5422   -5.6025    0.0000 C   0  0  0  0  0  0  0  0  0  0  0  0
   14.3661   -5.6457    0.0000 C   0  0  0  0  0  0  0  0  0  0  0  0
   14.7406   -6.3808    0.0000 C   0  0  0  0  0  0  0  0  0  0  0  0
   14.2913   -7.0727    0.0000 C   0  0  0  0  0  0  0  0  0  0  0  0
   13.4674   -7.0295    0.0000 C   0  0  0  0  0  0  0  0  0  0  0  0
   13.0929   -6.2944    0.0000 C   0  0  0  0  0  0  0  0  0  0  0  0
   10.5934   -3.4329    0.0000 C   0  0  0  0  0  0  0  0  0  0  0  0
   10.6365   -2.6090    0.0000 O   0  0  0  0  0  0  0  0  0  0  0  0
  1  2  1  0  0  0  0
  2  3  1  0  0  0  0
  3  4  1  0  0  0  0
  4  5  2  0  0  0  0
  4  6  1  0  0  0  0
  6  7  1  0  0  0  0
  7  8  1  1  0  0  0
  7  9  1  0  0  0  0
  9 10  1  0  0  0  0
 10 11  2  0  0  0  0
 10 12  1  0  0  0  0
 12 13  1  0  0  0  0
 13 14  1  0  0  0  0
 14 15  1  0  0  0  0
 15 16  1  0  0  0  0
 12 16  1  0  0  0  0
 16 17  1  0  0  0  0
 16 18  1  0  0  0  0
 14 19  1  0  0  0  0
 19 20  1  1  0  0  0
 20 21  1  0  0  0  0
 21 22  2  0  0  0  0
 21 23  1  0  0  0  0
 23 24  1  6  0  0  0
 23 25  1  0  0  0  0
 25 26  4  0  0  0  0
 26 27  4  0  0  0  0
 27 28  4  0  0  0  0
 28 29  4  0  0  0  0
 29 30  4  0  0  0  0
 25 30  4  0  0  0  0
 19 31  1  0  0  0  0
 13 31  1  0  0  0  0
 31 32  2  0  0  0  0
M  END

> <ChembankId>
1074

> <SMILES>
CCOC(=O)O[C@@H](C)OC(=O)C1N2C(SC1(C)C)[C@H](NC(=O)[C@H](N)c3ccccc3)C2=O

> <InChI>
1/C21H27N3O7S/c1-5-29-20(28)31-11(2)30-19(27)15-21(3,4)32-18-14(17(26)24(15)18)23-16(25)13(22)12-9-7-6-8-10-12/h6-11,13-15,18H,5,22H2,1-4H3,(H,23,25)

$$$$
1145
  Marvin  11101114192D          

 31 33  0  0  1  0            999 V2000
   -2.1434   -0.4125    0.0000 C   0  0  0  0  0  0  0  0  0  0  0  0
   -2.1434   -1.2375    0.0000 N   0  0  0  0  0  0  0  0  0  0  0  0
   -2.8579   -1.6500    0.0000 C   0  0  2  0  0  0  0  0  0  0  0  0
   -2.8579   -2.4750    0.0000 C   0  0  1  0  0  0  0  0  0  0  0  0
   -2.1434   -2.8875    0.0000 O   0  0  0  0  0  0  0  0  0  0  0  0
   -3.5724   -2.8875    0.0000 C   0  0  1  0  0  0  0  0  0  0  0  0
   -3.5724   -3.7125    0.0000 O   0  0  0  0  0  0  0  0  0  0  0  0
   -4.2868   -4.1250    0.0000 C   0  0  1  0  0  0  0  0  0  0  0  0
   -5.0013   -3.7125    0.0000 C   0  0  2  0  0  0  0  0  0  0  0  0
   -5.0013   -2.8875    0.0000 N   0  0  0  0  0  0  0  0  0  0  0  0
   -5.7158   -4.1250    0.0000 C   0  0  0  0  0  0  0  0  0  0  0  0
   -5.7158   -4.9500    0.0000 C   0  0  2  0  0  0  0  0  0  0  0  0
   -6.4302   -5.3625    0.0000 N   0  0  0  0  0  0  0  0  0  0  0  0
   -5.0013   -5.3625    0.0000 C   0  0  1  0  0  0  0  0  0  0  0  0
   -5.0013   -6.1875    0.0000 O   0  0  0  0  0  0  0  0  0  0  0  0
   -4.2868   -6.6000    0.0000 C   0  0  1  0  0  0  0  0  0  0  0  0
   -3.5724   -6.1875    0.0000 O   0  0  0  0  0  0  0  0  0  0  0  0
   -2.8579   -6.6000    0.0000 C   0  0  0  0  0  0  0  0  0  0  0  0
   -2.8579   -7.4250    0.0000 C   0  0  0  0  0  0  0  0  0  0  0  0
   -3.5724   -7.8375    0.0000 C   0  0  0  0  0  0  0  0  0  0  0  0
   -4.2868   -7.4250    0.0000 C   0  0  1  0  0  0  0  0  0  0  0  0
   -5.0013   -7.8375    0.0000 N   0  0  0  0  0  0  0  0  0  0  0  0
   -2.1434   -6.1875    0.0000 C   0  0  0  0  0  0  0  0  0  0  0  0
   -2.1434   -5.3625    0.0000 N   0  0  0  0  0  0  0  0  0  0  0  0
   -4.2868   -4.9500    0.0000 C   0  0  2  0  0  0  0  0  0  0  0  0
   -3.5724   -5.3625    0.0000 O   0  0  0  0  0  0  0  0  0  0  0  0
   -4.2868   -2.4750    0.0000 O   0  0  0  0  0  0  0  0  0  0  0  0
   -4.2868   -1.6500    0.0000 C   0  0  0  0  0  0  0  0  0  0  0  0
   -3.5724   -1.2375    0.0000 C   0  0  1  0  0  0  0  0  0  0  0  0
   -3.9597   -0.5091    0.0000 C   0  0  0  0  0  0  0  0  0  0  0  0
   -3.1850   -0.5091    0.0000 O   0  0  0  0  0  0  0  0  0  0  0  0
  1  2  1  0  0  0  0
  3  2  1  6  0  0  0
  3  4  1  0  0  0  0
  4  5  1  1  0  0  0
  4  6  1  0  0  0  0
  6  7  1  1  0  0  0
  8  7  1  6  0  0  0
  8  9  1  0  0  0  0
  9 10  1  1  0  0  0
  9 11  1  0  0  0  0
 11 12  1  0  0  0  0
 12 13  1  1  0  0  0
 12 14  1  0  0  0  0
 14 15  1  6  0  0  0
 16 15  1  1  0  0  0
 16 17  1  0  0  0  0
 17 18  1  0  0  0  0
 18 19  2  0  0  0  0
 19 20  1  0  0  0  0
 20 21  1  0  0  0  0
 16 21  1  0  0  0  0
 21 22  1  1  0  0  0
 18 23  1  0  0  0  0
 23 24  1  0  0  0  0
 14 25  1  0  0  0  0
  8 25  1  0  0  0  0
 25 26  1  1  0  0  0
  6 27  1  0  0  0  0
 27 28  1  0  0  0  0
 28 29  1  0  0  0  0
  3 29  1  0  0  0  0
 29 30  1  1  0  0  0
 29 31  1  6  0  0  0
M  END

> <ChembankId>
1145

> <SMILES>
CN[C@@H]1[C@@H](O)[C@@H](O[C@H]2[C@H](N)C[C@H](N)[C@@H](O[C@H]3OC(=CC[C@H]3N)CN)[C@@H]2O)OC[C@]1(C)O

> <InChI>
1/C19H37N5O7/c1-19(27)7-28-18(13(26)16(19)24-2)31-15-11(23)5-10(22)14(12(15)25)30-17-9(21)4-3-8(6-20)29-17/h3,9-18,24-27H,4-7,20-23H2,1-2H3

$$$$
1166
  Marvin  11101114192D          

 59 63  0  0  1  0            999 V2000
    5.4617   -0.9255    0.0000 C   0  0  0  0  0  0  0  0  0  0  0  0
    6.0980   -0.4004    0.0000 O   0  0  0  0  0  0  0  0  0  0  0  0
    5.9612    0.4132    0.0000 C   0  0  1  0  0  0  0  0  0  0  0  0
    5.1371    0.3819    0.0000 C   0  0  0  0  0  0  0  0  0  0  0  0
    4.3321    0.5627    0.0000 C   0  0  0  0  0  0  0  0  0  0  0  0
    3.5927    0.9335    0.0000 O   0  0  0  0  0  0  0  0  0  0  0  0
    3.0009    1.5236    0.0000 C   0  0  1  0  0  0  0  0  0  0  0  0
    2.5853    0.8109    0.0000 C   0  0  0  0  0  0  0  0  0  0  0  0
    2.1961    1.7478    0.0000 O   0  0  0  0  0  0  0  0  0  0  0  0
    2.1569    2.5932    0.0000 C   0  0  0  0  0  0  0  0  0  0  0  0
    2.9428    2.8870    0.0000 C   0  0  0  0  0  0  0  0  0  0  0  0
    3.4562    2.2239    0.0000 C   0  0  0  0  0  0  0  0  0  0  0  0
    4.2805    2.2578    0.0000 O   0  0  0  0  0  0  0  0  0  0  0  0
    3.1020    3.7389    0.0000 C   0  0  0  0  0  0  0  0  0  0  0  0
    3.9045    4.0126    0.0000 C   0  0  0  0  0  0  0  0  0  0  0  0
    4.5195    3.4626    0.0000 O   0  0  0  0  0  0  0  0  0  0  0  0
    4.0823    4.8185    0.0000 C   0  0  0  0  0  0  0  0  0  0  0  0
    4.8769    5.0402    0.0000 C   0  0  0  0  0  0  0  0  0  0  0  0
    5.4662    4.4629    0.0000 N   0  0  0  0  0  0  0  0  0  0  0  0
    6.2609    4.6846    0.0000 N   0  0  0  0  0  0  0  0  0  0  0  0
    6.4662    5.4836    0.0000 C   0  0  0  0  0  0  0  0  0  0  0  0
    7.2609    5.7053    0.0000 C   0  0  0  0  0  0  0  0  0  0  0  0
    7.8502    5.1280    0.0000 N   0  0  0  0  0  0  0  0  0  0  0  0
    8.3066    4.4407    0.0000 C   0  0  0  0  0  0  0  0  0  0  0  0
    7.6449    4.3289    0.0000 C   0  0  0  0  0  0  0  0  0  0  0  0
    6.8502    4.1072    0.0000 C   0  0  0  0  0  0  0  0  0  0  0  0
    3.5104    5.4187    0.0000 C   0  0  0  0  0  0  0  0  0  0  0  0
    4.0657    6.0988    0.0000 N   0  0  0  0  0  0  0  0  0  0  0  0
    4.7975    6.5506    0.0000 C   0  0  0  0  0  0  0  0  0  0  0  0
    4.5162    7.3262    0.0000 O   0  0  0  0  0  0  0  0  0  0  0  0
    5.6525    6.6735    0.0000 C   0  0  0  0  0  0  0  0  0  0  0  0
    6.5063    6.5203    0.0000 C   0  0  0  0  0  0  0  0  0  0  0  0
    7.2816    6.1266    0.0000 C   0  0  0  0  0  0  0  0  0  0  0  0
    7.8953    5.5569    0.0000 C   0  0  0  0  0  0  0  0  0  0  0  0
    8.3344    4.8519    0.0000 C   0  0  0  0  0  0  0  0  0  0  0  0
    9.0858    5.1925    0.0000 C   0  0  0  0  0  0  0  0  0  0  0  0
    8.5747    4.0586    0.0000 C   0  0  2  0  0  0  0  0  0  0  0  0
    9.3887    4.1925    0.0000 O   0  0  0  0  0  0  0  0  0  0  0  0
    8.6011    3.2307    0.0000 C   0  0  1  0  0  0  0  0  0  0  0  0
    9.4221    3.1493    0.0000 C   0  0  0  0  0  0  0  0  0  0  0  0
    8.4124    2.4243    0.0000 C   0  0  1  0  0  0  0  0  0  0  0  0
    9.1843    2.1331    0.0000 O   0  0  0  0  0  0  0  0  0  0  0  0
    8.0214    1.6941    0.0000 C   0  0  1  0  0  0  0  0  0  0  0  0
    8.6917    1.2131    0.0000 C   0  0  0  0  0  0  0  0  0  0  0  0
    7.4549    1.0901    0.0000 C   0  0  1  0  0  0  0  0  0  0  0  0
    7.9779    0.4521    0.0000 O   0  0  0  0  0  0  0  0  0  0  0  0
    7.6868   -0.3199    0.0000 C   0  0  0  0  0  0  0  0  0  0  0  0
    6.8728   -0.4538    0.0000 O   0  0  0  0  0  0  0  0  0  0  0  0
    8.2098   -0.9579    0.0000 C   0  0  0  0  0  0  0  0  0  0  0  0
    6.7520    0.6534    0.0000 C   0  0  2  0  0  0  0  0  0  0  0  0
    7.0924   -0.0980    0.0000 C   0  0  0  0  0  0  0  0  0  0  0  0
    5.6668    7.4984    0.0000 C   0  0  0  0  0  0  0  0  0  0  0  0
    2.7075    5.1228    0.0000 C   0  0  0  0  0  0  0  0  0  0  0  0
    2.1029    5.6840    0.0000 O   0  0  0  0  0  0  0  0  0  0  0  0
    2.4705    4.2946    0.0000 C   0  0  0  0  0  0  0  0  0  0  0  0
    1.6904    3.9610    0.0000 C   0  0  0  0  0  0  0  0  0  0  0  0
    1.0511    4.4825    0.0000 O   0  0  0  0  0  0  0  0  0  0  0  0
    1.5215    3.1363    0.0000 C   0  0  0  0  0  0  0  0  0  0  0  0
    0.7413    2.8683    0.0000 C   0  0  0  0  0  0  0  0  0  0  0  0
  1  2  1  0  0  0  0
  3  2  1  1  0  0  0
  3  4  1  0  0  0  0
  4  5  2  0  0  0  0
  5  6  1  4  0  0  0
  6  7  1  0  0  0  0
  7  8  1  6  0  0  0
  7  9  1  0  0  0  0
  9 10  1  0  0  0  0
 10 11  4  0  0  0  0
 11 12  1  0  0  0  0
  7 12  1  0  0  0  0
 12 13  2  0  0  0  0
 11 14  4  0  0  0  0
 14 15  4  0  0  0  0
 15 16  1  0  0  0  0
 15 17  4  0  0  0  0
 18 17  1  4  0  0  0
 18 19  2  0  0  0  0
 19 20  1  0  0  0  0
 20 21  1  0  0  0  0
 21 22  1  0  0  0  0
 22 23  1  0  0  0  0
 23 24  1  0  0  0  0
 23 25  1  0  0  0  0
 25 26  1  0  0  0  0
 20 26  1  0  0  0  0
 17 27  4  0  0  0  0
 27 28  1  0  0  0  0
 28 29  1  0  0  0  0
 29 30  2  0  0  0  0
 29 31  1  0  0  0  0
 31 32  2  0  0  0  0
 32 33  1  4  0  0  0
 33 34  2  0  0  0  0
 34 35  1  4  0  0  0
 35 36  1  0  0  0  0
 35 37  1  0  0  0  0
 37 38  1  6  0  0  0
 37 39  1  0  0  0  0
 39 40  1  1  0  0  0
 39 41  1  0  0  0  0
 41 42  1  1  0  0  0
 41 43  1  0  0  0  0
 43 44  1  1  0  0  0
 43 45  1  0  0  0  0
 45 46  1  1  0  0  0
 46 47  1  0  0  0  0
 47 48  2  0  0  0  0
 47 49  1  0  0  0  0
 45 50  1  0  0  0  0
  3 50  1  0  0  0  0
 50 51  1  6  0  0  0
 31 52  1  0  0  0  0
 27 53  4  0  0  0  0
 53 54  1  0  0  0  0
 53 55  4  0  0  0  0
 14 55  4  0  0  0  0
 55 56  4  0  0  0  0
 56 57  1  0  0  0  0
 56 58  4  0  0  0  0
 10 58  4  0  0  0  0
 58 59  1  0  0  0  0
M  END

> <ChembankId>
1166

> <SMILES>
CO[C@H]1C=CO[C@@]2(C)Oc3c(C2=O)c4c(O)c(C=NN5CCN(C)CC5)c(NC(=O)C(=CC=CC(C)[C@H](O)[C@@H](C)[C@@H](O)[C@@H](C)[C@@H](OC(=O)C)[C@@H]1C)C)c(O)c4c(O)c3C

> <InChI>
1/C43H58N4O12/c1-21-12-11-13-22(2)42(55)45-33-28(20-44-47-17-15-46(9)16-18-47)37(52)30-31(38(33)53)36(51)26(6)40-32(30)41(54)43(8,59-40)57-19-14-29(56-10)23(3)39(58-27(7)48)25(5)35(50)24(4)34(21)49/h11-14,19-21,23-25,29,34-35,39,49-53H,15-18H2,1-10H3,(H,45,55)

$$$$
1178
  Marvin  11101114192D          

 24 29  0  0  1  0            999 V2000
   -0.2779   -1.2924    0.0000 C   0  0  0  0  0  0  0  0  0  0  0  0
   -0.4852   -0.4938    0.0000 C   0  0  0  0  0  0  0  0  0  0  0  0
    0.1027    0.0850    0.0000 C   0  0  2  0  0  0  0  0  0  0  0  0
    0.2093    0.9045    0.0000 C   0  0  1  0  0  0  0  0  0  0  0  0
   -0.2789    1.5695    0.0000 O   0  0  0  0  0  0  0  0  0  0  0  0
    1.0597    0.7543    0.0000 N   0  0  0  0  0  0  0  0  0  0  0  0
    1.3060    1.5404    0.0000 C   0  0  0  0  0  0  0  0  0  0  0  0
    2.1103    1.4482    0.0000 C   0  0  0  0  0  0  0  0  0  0  0  0
    2.6707    0.6347    0.0000 C   0  0  2  0  0  0  0  0  0  0  0  0
    2.5942    1.3472    0.0000 C   0  0  0  0  0  0  0  0  0  0  0  0
    2.9571    2.0881    0.0000 O   0  0  0  0  0  0  0  0  0  0  0  0
    1.7456    0.8234    0.0000 C   0  0  0  0  0  0  0  0  0  0  0  0
    0.9711    0.1843    0.0000 C   0  0  0  0  0  0  0  0  0  0  0  0
    0.9435   -0.6503    0.0000 C   0  0  0  0  0  0  0  0  0  0  0  0
    1.5792   -0.0571    0.0000 C   0  0  0  0  0  0  0  0  0  0  0  0
    2.4418   -0.2019    0.0000 C   0  0  0  0  0  0  0  0  0  0  0  0
    3.0125   -0.8565    0.0000 N   0  0  0  0  0  0  0  0  0  0  0  0
    2.9557   -1.6795    0.0000 C   0  0  0  0  0  0  0  0  0  0  0  0
    3.6493   -0.3023    0.0000 C   0  0  0  0  0  0  0  0  0  0  0  0
    4.4132   -0.6139    0.0000 C   0  0  0  0  0  0  0  0  0  0  0  0
    5.0650   -0.1081    0.0000 C   0  0  0  0  0  0  0  0  0  0  0  0
    4.9529    0.7092    0.0000 C   0  0  0  0  0  0  0  0  0  0  0  0
    4.1890    1.0208    0.0000 C   0  0  0  0  0  0  0  0  0  0  0  0
    3.5372    0.5150    0.0000 C   0  0  0  0  0  0  0  0  0  0  0  0
  1  2  1  0  0  0  0
  3  2  1  6  0  0  0
  3  4  1  0  0  0  0
  4  5  1  1  0  0  0
  4  6  1  0  0  0  0
  6  7  1  0  0  0  0
  7  8  1  0  0  0  0
  8  9  1  0  0  0  0
  9 10  1  0  0  0  0
 10 11  1  0  0  0  0
 10 12  1  0  0  0  0
  7 12  1  0  0  0  0
 12 13  1  0  0  0  0
  3 13  1  0  0  0  0
 13 14  1  0  0  0  0
 14 15  1  0  0  0  0
  6 15  1  0  0  0  0
 15 16  1  0  0  0  0
  9 16  1  0  0  0  0
 16 17  1  0  0  0  0
 17 18  1  0  0  0  0
 17 19  1  0  0  0  0
 19 20  4  0  0  0  0
 20 21  4  0  0  0  0
 21 22  4  0  0  0  0
 22 23  4  0  0  0  0
 23 24  4  0  0  0  0
 19 24  4  0  0  0  0
  9 24  1  1  0  0  0
M  END

> <ChembankId>
1178

> <SMILES>
CC[C@@H]1[C@@H](O)N2C3C[C@@]45C(O)C3C1CC2C5N(C)c6ccccc64

> <InChI>
1/C20H26N2O2/c1-3-10-11-8-14-17-20(12-6-4-5-7-13(12)21(17)2)9-15(16(11)18(20)23)22(14)19(10)24/h4-7,10-11,14-19,23-24H,3,8-9H2,1-2H3

$$$$
1182
  Marvin  11101114192D          

 36 39  0  0  1  0            999 V2000
    5.5648    3.0385    0.0000 N   0  0  0  0  0  0  0  0  0  0  0  0
    5.5648    2.2135    0.0000 C   0  0  0  0  0  0  0  0  0  0  0  0
    6.2793    1.8010    0.0000 O   0  0  0  0  0  0  0  0  0  0  0  0
    4.8503    1.8010    0.0000 C   0  0  0  0  0  0  0  0  0  0  0  0
    4.8503    0.9760    0.0000 C   0  0  0  0  0  0  0  0  0  0  0  0
    4.1358    0.5635    0.0000 C   0  0  0  0  0  0  0  0  0  0  0  0
    3.4214    0.9760    0.0000 N   0  3  0  0  0  0  0  0  0  0  0  0
    2.7069    0.5635    0.0000 C   0  0  0  0  0  0  0  0  0  0  0  0
    1.9924    0.9760    0.0000 C   0  0  0  0  0  0  0  0  0  0  0  0
    1.2780    0.5635    0.0000 C   0  0  0  0  0  0  0  0  0  0  0  0
    0.5635    0.9760    0.0000 N   0  0  0  0  0  0  0  0  0  0  0  0
    0.5635    1.8010    0.0000 C   0  0  0  0  0  0  0  0  0  0  0  0
    1.2780    2.2135    0.0000 S   0  0  0  0  0  0  0  0  0  0  0  0
    1.9924    1.8010    0.0000 C   0  0  0  0  0  0  0  0  0  0  0  0
   -0.2615    1.8010    0.0000 C   0  0  2  0  0  0  0  0  0  0  0  0
   -0.8449    2.3843    0.0000 N   0  0  0  0  0  0  0  0  0  0  0  0
   -0.6314    3.1812    0.0000 C   0  0  0  0  0  0  0  0  0  0  0  0
    0.1655    3.3948    0.0000 O   0  0  0  0  0  0  0  0  0  0  0  0
   -1.2147    3.7646    0.0000 C   0  0  0  0  0  0  0  0  0  0  0  0
   -2.0116    3.5511    0.0000 C   0  0  0  0  0  0  0  0  0  0  0  0
   -2.2251    2.7542    0.0000 C   0  0  0  0  0  0  0  0  0  0  0  0
   -3.0220    2.5407    0.0000 C   0  0  0  0  0  0  0  0  0  0  0  0
   -3.6054    3.1240    0.0000 C   0  0  0  0  0  0  0  0  0  0  0  0
   -3.3919    3.9209    0.0000 C   0  0  0  0  0  0  0  0  0  0  0  0
   -2.5950    4.1344    0.0000 C   0  0  0  0  0  0  0  0  0  0  0  0
   -1.0012    4.5615    0.0000 S   0  0  0  0  0  0  0  0  0  0  0  0
   -0.2043    4.3480    0.0000 O   0  0  0  0  0  0  0  0  0  0  0  0
   -1.7981    4.7750    0.0000 O   0  0  0  0  0  0  0  0  0  0  0  0
   -0.7877    5.3584    0.0000 O   0  0  0  0  0  0  0  0  0  0  0  0
   -0.2615    0.9760    0.0000 C   0  0  0  0  0  0  0  0  0  0  0  0
   -0.8449    0.3926    0.0000 O   0  0  0  0  0  0  0  0  0  0  0  0
    1.2780   -0.2615    0.0000 C   0  0  0  0  0  0  0  0  0  0  0  0
    0.5635   -0.6740    0.0000 O   0  0  0  0  0  0  0  0  0  0  0  0
    1.9924   -0.6740    0.0000 O   0  0  0  0  0  0  0  0  0  0  0  0
    3.4214    1.8010    0.0000 C   0  0  0  0  0  0  0  0  0  0  0  0
    4.1358    2.2135    0.0000 C   0  0  0  0  0  0  0  0  0  0  0  0
  1  2  1  0  0  0  0
  2  3  2  0  0  0  0
  2  4  1  0  0  0  0
  4  5  4  0  0  0  0
  5  6  4  0  0  0  0
  6  7  4  0  0  0  0
  7  8  1  0  0  0  0
  8  9  1  0  0  0  0
  9 10  2  0  0  0  0
 10 11  1  0  0  0  0
 11 12  1  0  0  0  0
 12 13  1  0  0  0  0
 13 14  1  0  0  0  0
  9 14  1  0  0  0  0
 12 15  1  0  0  0  0
 15 16  1  1  0  0  0
 16 17  1  0  0  0  0
 17 18  2  0  0  0  0
 17 19  1  0  0  0  0
 19 20  1  0  0  0  0
 20 21  4  0  0  0  0
 21 22  4  0  0  0  0
 22 23  4  0  0  0  0
 23 24  4  0  0  0  0
 24 25  4  0  0  0  0
 20 25  4  0  0  0  0
 19 26  1  0  0  0  0
 26 27  2  0  0  0  0
 26 28  2  0  0  0  0
 26 29  1  0  0  0  0
 15 30  1  0  0  0  0
 11 30  1  0  0  0  0
 30 31  2  0  0  0  0
 10 32  1  0  0  0  0
 32 33  2  0  0  0  0
 32 34  1  0  0  0  0
  7 35  4  0  0  0  0
 35 36  4  0  0  0  0
  4 36  4  0  0  0  0
M  CHG  1   7   1
M  END

> <ChembankId>
1182

> <SMILES>
NC(=O)c1cc[n+](CC2=C(N3C(SC2)[C@H](NC(=O)C(c4ccccc4)S(=O)(=O)O)C3=O)C(=O)O)cc1

> <InChI>
1/C22H20N4O8S2/c23-18(27)13-6-8-25(9-7-13)10-14-11-35-21-15(20(29)26(21)16(14)22(30)31)24-19(28)17(36(32,33)34)12-4-2-1-3-5-12/h1-9,15,17,21H,10-11H2,(H4-,23,24,27,28,30,31,32,33,34)/p+1

$$$$
1183
  Marvin  11101114192D          

 40 42  0  0  1  0            999 V2000
    4.4449   -0.4672    0.0000 C   0  0  0  0  0  0  0  0  0  0  0  0
    5.0580   -1.0192    0.0000 N   0  0  0  0  0  0  0  0  0  0  0  0
    4.8865   -1.8262    0.0000 C   0  0  1  0  0  0  0  0  0  0  0  0
    5.4996   -2.3782    0.0000 C   0  0  0  0  0  0  0  0  0  0  0  0
    6.2842   -2.1233    0.0000 O   0  0  0  0  0  0  0  0  0  0  0  0
    5.3281   -3.1852    0.0000 C   0  0  0  0  0  0  0  0  0  0  0  0
    5.9411   -3.7372    0.0000 O   0  0  0  0  0  0  0  0  0  0  0  0
    4.5434   -3.4401    0.0000 C   0  0  0  0  0  0  0  0  0  0  0  0
    4.3719   -4.2471    0.0000 C   0  0  0  0  0  0  0  0  0  0  0  0
    4.9850   -4.7991    0.0000 O   0  0  0  0  0  0  0  0  0  0  0  0
    3.9303   -2.8881    0.0000 O   0  0  0  0  0  0  0  0  0  0  0  0
    4.1019   -2.0811    0.0000 C   0  0  0  0  0  0  0  0  0  0  0  0
    3.4888   -1.5291    0.0000 O   0  0  0  0  0  0  0  0  0  0  0  0
    2.7041   -1.7840    0.0000 C   0  0  0  0  0  0  0  0  0  0  0  0
    2.4492   -2.5687    0.0000 C   0  0  2  0  0  0  0  0  0  0  0  0
    2.9341   -3.2361    0.0000 O   0  0  0  0  0  0  0  0  0  0  0  0
    2.5986   -3.9898    0.0000 C   0  0  1  0  0  0  0  0  0  0  0  0
    3.0835   -4.6572    0.0000 C   0  0  2  0  0  0  0  0  0  0  0  0
    3.9040   -4.5710    0.0000 O   0  0  0  0  0  0  0  0  0  0  0  0
    2.7479   -5.4109    0.0000 C   0  0  1  0  0  0  0  0  0  0  0  0
    3.2329   -6.0783    0.0000 O   0  0  0  0  0  0  0  0  0  0  0  0
    1.9275   -5.4971    0.0000 C   0  0  2  0  0  0  0  0  0  0  0  0
    1.5919   -6.2508    0.0000 N   0  0  0  0  0  0  0  0  0  0  0  0
    0.7714   -6.3370    0.0000 C   0  0  0  0  0  0  0  0  0  0  0  0
    0.4359   -7.0907    0.0000 N   0  0  0  0  0  0  0  0  0  0  0  0
    0.2865   -5.6696    0.0000 N   0  0  0  0  0  0  0  0  0  0  0  0
    1.4425   -4.8297    0.0000 C   0  0  1  0  0  0  0  0  0  0  0  0
    0.6221   -4.9159    0.0000 O   0  0  0  0  0  0  0  0  0  0  0  0
    1.7781   -4.0760    0.0000 C   0  0  2  0  0  0  0  0  0  0  0  0
    1.2932   -3.4086    0.0000 N   0  0  0  0  0  0  0  0  0  0  0  0
    0.4727   -3.4948    0.0000 C   0  0  0  0  0  0  0  0  0  0  0  0
    0.1371   -4.2485    0.0000 N   0  0  0  0  0  0  0  0  0  0  0  0
   -0.0122   -2.8274    0.0000 N   0  0  0  0  0  0  0  0  0  0  0  0
    1.6242   -2.5687    0.0000 O   0  0  0  0  0  0  0  0  0  0  0  0
    1.3693   -1.7840    0.0000 C   0  0  1  0  0  0  0  0  0  0  0  0
    0.5846   -1.5291    0.0000 C   0  0  0  0  0  0  0  0  0  0  0  0
    2.0367   -1.2991    0.0000 C   0  0  1  0  0  0  0  0  0  0  0  0
    1.6317   -0.5804    0.0000 O   0  0  0  0  0  0  0  0  0  0  0  0
    2.4417   -0.5804    0.0000 C   0  0  0  0  0  0  0  0  0  0  0  0
    3.2667   -0.5717    0.0000 O   0  0  0  0  0  0  0  0  0  0  0  0
  1  2  1  0  0  0  0
  3  2  1  1  0  0  0
  3  4  1  0  0  0  0
  4  5  1  0  0  0  0
  4  6  1  0  0  0  0
  6  7  1  0  0  0  0
  6  8  1  0  0  0  0
  8  9  1  0  0  0  0
  9 10  1  0  0  0  0
  8 11  1  0  0  0  0
 11 12  1  0  0  0  0
  3 12  1  0  0  0  0
 12 13  1  0  0  0  0
 13 14  1  0  0  0  0
 14 15  1  0  0  0  0
 15 16  1  6  0  0  0
 17 16  1  1  0  0  0
 17 18  1  0  0  0  0
 18 19  1  6  0  0  0
 18 20  1  0  0  0  0
 20 21  1  1  0  0  0
 20 22  1  0  0  0  0
 22 23  1  6  0  0  0
 23 24  1  0  0  0  0
 24 25  2  0  0  0  0
 24 26  1  0  0  0  0
 22 27  1  0  0  0  0
 27 28  1  1  0  0  0
 27 29  1  0  0  0  0
 17 29  1  0  0  0  0
 29 30  1  6  0  0  0
 30 31  1  0  0  0  0
 31 32  2  0  0  0  0
 31 33  1  0  0  0  0
 15 34  1  0  0  0  0
 34 35  1  0  0  0  0
 35 36  1  1  0  0  0
 35 37  1  0  0  0  0
 14 37  1  0  0  0  0
 37 38  1  1  0  0  0
 37 39  1  6  0  0  0
 39 40  1  0  0  0  0
M  END

> <ChembankId>
1183

> <SMILES>
CN[C@H]1C(O)C(O)C(CO)OC1OC2[C@H](O[C@H]3[C@H](O)[C@@H](O)[C@H](NC(=N)N)[C@@H](O)[C@@H]3NC(=N)N)O[C@@H](C)[C@]2(O)CO

> <InChI>
1/C21H41N7O12/c1-5-21(36,4-30)16(40-17-9(26-2)13(34)10(31)6(3-29)38-17)18(37-5)39-15-8(28-20(24)25)11(32)7(27-19(22)23)12(33)14(15)35/h5-18,26,29-36H,3-4H2,1-2H3,(H4,22,23,27)(H4,24,25,28)

$$$$
1197
  Marvin  11101114192D          

 33 36  0  0  1  0            999 V2000
    2.1434   -1.2375    0.0000 C   0  0  0  0  0  0  0  0  0  0  0  0
    2.8579   -1.6500    0.0000 N   0  0  0  0  0  0  0  0  0  0  0  0
    3.5724   -1.2375    0.0000 C   0  0  0  0  0  0  0  0  0  0  0  0
    2.8579   -2.4750    0.0000 C   0  0  1  0  0  0  0  0  0  0  0  0
    3.5724   -2.8875    0.0000 C   0  0  0  0  0  0  0  0  0  0  0  0
    4.2868   -2.4750    0.0000 C   0  0  1  0  0  0  0  0  0  0  0  0
    4.2868   -1.6500    0.0000 O   0  0  0  0  0  0  0  0  0  0  0  0
    5.0013   -2.8875    0.0000 C   0  0  2  0  0  0  0  0  0  0  0  0
    5.7158   -2.4750    0.0000 C   0  0  0  0  0  0  0  0  0  0  0  0
    5.7158   -1.6500    0.0000 C   0  0  0  0  0  0  0  0  0  0  0  0
    6.4302   -2.8875    0.0000 C   0  0  0  0  0  0  0  0  0  0  0  0
    7.1447   -2.4750    0.0000 C   0  0  0  0  0  0  0  0  0  0  0  0
    7.1447   -1.6500    0.0000 Cl  0  0  0  0  0  0  0  0  0  0  0  0
    7.8592   -2.8875    0.0000 C   0  0  0  0  0  0  0  0  0  0  0  0
    7.8592   -3.7125    0.0000 C   0  0  0  0  0  0  0  0  0  0  0  0
    7.1447   -4.1250    0.0000 C   0  0  0  0  0  0  0  0  0  0  0  0
    7.1447   -4.9500    0.0000 O   0  0  0  0  0  0  0  0  0  0  0  0
    6.4302   -3.7125    0.0000 C   0  0  0  0  0  0  0  0  0  0  0  0
    5.7158   -4.1250    0.0000 C   0  0  0  0  0  0  0  0  0  0  0  0
    5.7158   -4.9500    0.0000 O   0  0  0  0  0  0  0  0  0  0  0  0
    5.0013   -3.7125    0.0000 C   0  0  0  0  0  0  0  0  0  0  0  0
    4.2868   -4.1250    0.0000 C   0  0  0  0  0  0  0  0  0  0  0  0
    4.2868   -4.9500    0.0000 O   0  0  0  0  0  0  0  0  0  0  0  0
    3.5724   -3.7125    0.0000 C   0  0  1  0  0  0  0  0  0  0  0  0
    3.5724   -4.5375    0.0000 O   0  0  0  0  0  0  0  0  0  0  0  0
    2.8579   -4.1250    0.0000 C   0  0  0  0  0  0  0  0  0  0  0  0
    2.8579   -4.9500    0.0000 O   0  0  0  0  0  0  0  0  0  0  0  0
    2.1434   -3.7125    0.0000 C   0  0  0  0  0  0  0  0  0  0  0  0
    2.1434   -2.8875    0.0000 C   0  0  0  0  0  0  0  0  0  0  0  0
    1.4289   -2.4750    0.0000 O   0  0  0  0  0  0  0  0  0  0  0  0
    1.4289   -4.1250    0.0000 C   0  0  0  0  0  0  0  0  0  0  0  0
    1.4289   -4.9500    0.0000 O   0  0  0  0  0  0  0  0  0  0  0  0
    0.7145   -3.7125    0.0000 N   0  0  0  0  0  0  0  0  0  0  0  0
  1  2  1  0  0  0  0
  2  3  1  0  0  0  0
  4  2  1  1  0  0  0
  4  5  1  0  0  0  0
  5  6  1  0  0  0  0
  6  7  1  1  0  0  0
  6  8  1  0  0  0  0
  8  9  1  0  0  0  0
  9 10  2  0  0  0  0
  9 11  1  0  0  0  0
 11 12  4  0  0  0  0
 12 13  1  0  0  0  0
 12 14  4  0  0  0  0
 14 15  4  0  0  0  0
 15 16  4  0  0  0  0
 16 17  1  0  0  0  0
 16 18  4  0  0  0  0
 11 18  4  0  0  0  0
 18 19  1  0  0  0  0
 19 20  2  0  0  0  0
 19 21  1  0  0  0  0
  8 21  1  6  0  0  0
 21 22  2  0  0  0  0
 22 23  1  0  0  0  0
 22 24  1  0  0  0  0
  5 24  1  0  0  0  0
 24 25  1  1  0  0  0
 24 26  1  0  0  0  0
 26 27  2  0  0  0  0
 26 28  1  0  0  0  0
 28 29  2  0  0  0  0
  4 29  1  0  0  0  0
 29 30  1  0  0  0  0
 28 31  1  0  0  0  0
 31 32  2  0  0  0  0
 31 33  1  0  0  0  0
M  END

> <ChembankId>
1197

> <SMILES>
CN(C)[C@H]1[C@@H]2[C@@H](O)[C@@H]3C(=C)c4c(Cl)ccc(O)c4C(=O)C3=C(O)[C@]2(O)C(=O)C(=C1O)C(=O)N

> <InChI>
1/C22H21ClN2O8/c1-6-9-7(23)4-5-8(26)11(9)16(27)12-10(6)17(28)14-15(25(2)3)18(29)13(21(24)32)20(31)22(14,33)19(12)30/h4-5,10,14-15,17,26,28-30,33H,1H2,2-3H3,(H2,24,32)

$$$$
1245
  Marvin  11101114192D          

 31 35  0  0  1  0            999 V2000
    3.1037   -2.1342    0.0000 C   0  0  0  0  0  0  0  0  0  0  0  0
    3.8507   -2.5471    0.0000 C   0  0  0  0  0  0  0  0  0  0  0  0
    3.2866   -3.1874    0.0000 C   0  0  0  0  0  0  0  0  0  0  0  0
    4.1820   -1.7915    0.0000 O   0  0  0  0  0  0  0  0  0  0  0  0
    5.0030   -1.8731    0.0000 C   0  0  2  0  0  0  0  0  0  0  0  0
    5.7151   -1.4566    0.0000 C   0  0  0  0  0  0  0  0  0  0  0  0
    6.3313   -2.0052    0.0000 C   0  0  0  0  0  0  0  0  0  0  0  0
    7.1513   -1.9143    0.0000 C   0  0  0  0  0  0  0  0  0  0  0  0
    7.4826   -1.1588    0.0000 C   0  0  0  0  0  0  0  0  0  0  0  0
    8.3026   -1.0679    0.0000 C   0  0  0  0  0  0  0  0  0  0  0  0
    8.7913   -1.7326    0.0000 C   0  0  0  0  0  0  0  0  0  0  0  0
    9.6112   -1.6417    0.0000 C   0  0  0  0  0  0  0  0  0  0  0  0
   10.0999   -2.3064    0.0000 C   0  0  0  0  0  0  0  0  0  0  0  0
   10.9347   -2.2139    0.0000 O   0  0  0  0  0  0  0  0  0  0  0  0
    9.7686   -3.0620    0.0000 C   0  0  0  0  0  0  0  0  0  0  0  0
    8.9486   -3.1529    0.0000 C   0  0  0  0  0  0  0  0  0  0  0  0
    8.4600   -2.4882    0.0000 C   0  0  0  0  0  0  0  0  0  0  0  0
    7.8744   -3.0198    0.0000 C   0  0  0  0  0  0  0  0  0  0  0  0
    7.6400   -2.5790    0.0000 C   0  0  2  0  0  0  0  0  0  0  0  0
    8.2570   -3.3799    0.0000 F   0  0  0  0  0  0  0  0  0  0  0  0
    7.3087   -3.3346    0.0000 C   0  0  0  0  0  0  0  0  0  0  0  0
    7.5123   -4.1901    0.0000 O   0  0  0  0  0  0  0  0  0  0  0  0
    6.4887   -3.4254    0.0000 C   0  0  0  0  0  0  0  0  0  0  0  0
    6.0000   -2.7607    0.0000 C   0  0  0  0  0  0  0  0  0  0  0  0
    5.8477   -3.6222    0.0000 C   0  0  0  0  0  0  0  0  0  0  0  0
    5.1791   -2.6791    0.0000 C   0  0  2  0  0  0  0  0  0  0  0  0
    4.4669   -3.0956    0.0000 O   0  0  0  0  0  0  0  0  0  0  0  0
    5.0650   -3.6558    0.0000 C   0  0  0  0  0  0  0  0  0  0  0  0
    4.5781   -4.3762    0.0000 O   0  0  0  0  0  0  0  0  0  0  0  0
    5.4298   -4.4574    0.0000 C   0  0  0  0  0  0  0  0  0  0  0  0
    4.9504   -5.1288    0.0000 Cl  0  0  0  0  0  0  0  0  0  0  0  0
  1  2  1  0  0  0  0
  2  3  1  0  0  0  0
  2  4  1  0  0  0  0
  5  4  1  6  0  0  0
  5  6  1  0  0  0  0
  6  7  1  0  0  0  0
  7  8  1  0  0  0  0
  8  9  1  0  0  0  0
  9 10  1  0  0  0  0
 10 11  1  0  0  0  0
 11 12  2  0  0  0  0
 12 13  1  0  0  0  0
 13 14  2  0  0  0  0
 13 15  1  0  0  0  0
 15 16  1  0  0  0  0
 16 17  1  0  0  0  0
 11 17  1  0  0  0  0
 17 18  1  0  0  0  0
 17 19  1  0  0  0  0
  8 19  1  0  0  0  0
 19 20  1  6  0  0  0
 19 21  1  0  0  0  0
 21 22  1  0  0  0  0
 21 23  1  0  0  0  0
 23 24  1  0  0  0  0
  7 24  1  0  0  0  0
 24 25  1  0  0  0  0
 24 26  1  0  0  0  0
  5 26  1  0  0  0  0
 26 27  1  0  0  0  0
  2 27  1  0  0  0  0
 26 28  1  1  0  0  0
 28 29  2  0  0  0  0
 28 30  1  0  0  0  0
 30 31  1  0  0  0  0
M  END

> <ChembankId>
1245

> <SMILES>
CC1(C)O[C@@H]2CC3C4CCC5=CC(=O)CCC5(C)[C@@]4(F)C(O)CC3(C)[C@@]2(O1)C(=O)CCl

> <InChI>
1/C24H32ClFO5/c1-20(2)30-19-10-16-15-6-5-13-9-14(27)7-8-21(13,3)23(15,26)17(28)11-22(16,4)24(19,31-20)18(29)12-25/h9,15-17,19,28H,5-8,10-12H2,1-4H3

$$$$
1345
  Marvin  11101114192D          

 21 24  0  0  1  0            999 V2000
    3.5330   -3.2587    0.0000 C   0  0  0  0  0  0  0  0  0  0  0  0
    3.8928   -2.5163    0.0000 C   0  0  2  0  0  0  0  0  0  0  0  0
    4.4247   -3.1470    0.0000 C   0  0  0  0  0  0  0  0  0  0  0  0
    5.2368   -3.0018    0.0000 C   0  0  0  0  0  0  0  0  0  0  0  0
    5.5171   -2.2259    0.0000 C   0  0  1  0  0  0  0  0  0  0  0  0
    4.9853   -1.5952    0.0000 C   0  0  1  0  0  0  0  0  0  0  0  0
    5.2655   -0.8192    0.0000 C   0  0  0  0  0  0  0  0  0  0  0  0
    6.0777   -0.6740    0.0000 C   0  0  0  0  0  0  0  0  0  0  0  0
    6.6095   -1.3047    0.0000 C   0  0  0  0  0  0  0  0  0  0  0  0
    7.4216   -1.1595    0.0000 C   0  0  0  0  0  0  0  0  0  0  0  0
    7.9534   -1.7902    0.0000 C   0  0  0  0  0  0  0  0  0  0  0  0
    8.7655   -1.6450    0.0000 O   0  0  0  0  0  0  0  0  0  0  0  0
    7.6731   -2.5662    0.0000 C   0  0  0  0  0  0  0  0  0  0  0  0
    6.8610   -2.7114    0.0000 C   0  0  0  0  0  0  0  0  0  0  0  0
    6.3292   -2.0807    0.0000 C   0  0  2  0  0  0  0  0  0  0  0  0
    6.0489   -2.8566    0.0000 C   0  0  0  0  0  0  0  0  0  0  0  0
    4.1731   -1.7404    0.0000 C   0  0  2  0  0  0  0  0  0  0  0  0
    3.5218   -1.2340    0.0000 C   0  0  0  0  0  0  0  0  0  0  0  0
    2.8390   -1.6970    0.0000 C   0  0  0  0  0  0  0  0  0  0  0  0
    3.0683   -2.4895    0.0000 C   0  0  2  0  0  0  0  0  0  0  0  0
    2.5619   -3.1408    0.0000 O   0  0  0  0  0  0  0  0  0  0  0  0
  2  1  1  1  0  0  0
  2  3  1  0  0  0  0
  3  4  1  0  0  0  0
  5  4  1  1  0  0  0
  5  6  1  0  0  0  0
  6  7  1  6  0  0  0
  7  8  1  0  0  0  0
  8  9  1  0  0  0  0
  9 10  2  0  0  0  0
 10 11  1  0  0  0  0
 11 12  2  0  0  0  0
 11 13  1  0  0  0  0
 13 14  1  0  0  0  0
 14 15  1  0  0  0  0
  5 15  1  0  0  0  0
  9 15  1  0  0  0  0
 15 16  1  1  0  0  0
  6 17  1  0  0  0  0
  2 17  1  0  0  0  0
 17 18  1  1  0  0  0
 18 19  1  0  0  0  0
 19 20  1  0  0  0  0
  2 20  1  0  0  0  0
 20 21  1  1  0  0  0
M  END

> <ChembankId>
1345

> <SMILES>
C[C@@]12CC[C@H]3[C@@H](CCC4=CC(=O)CC[C@]34C)[C@@H]2CC[C@@H]1O

> <InChI>
1/C19H28O2/c1-18-9-7-13(20)11-12(18)3-4-14-15-5-6-17(21)19(15,2)10-8-16(14)18/h11,14-17,21H,3-10H2,1-2H3

$$$$
1366
  Marvin  11101114192D          

 30 32  0  0  1  0            999 V2000
    0.2249   -2.5417    0.0000 C   0  0  0  0  0  0  0  0  0  0  0  0
   -0.3585   -1.9583    0.0000 O   0  0  0  0  0  0  0  0  0  0  0  0
   -0.1450   -1.1614    0.0000 N   0  0  0  0  0  0  0  0  0  0  0  0
   -0.7283   -0.5780    0.0000 C   0  0  0  0  0  0  0  0  0  0  0  0
   -0.5148    0.2189    0.0000 C   0  0  0  0  0  0  0  0  0  0  0  0
   -1.0982    0.8022    0.0000 O   0  0  0  0  0  0  0  0  0  0  0  0
    0.2821    0.4324    0.0000 N   0  0  0  0  0  0  0  0  0  0  0  0
    0.8655   -0.1510    0.0000 C   0  0  1  0  0  0  0  0  0  0  0  0
    1.6905   -0.1510    0.0000 C   0  0  1  0  0  0  0  0  0  0  0  0
    2.4049    0.2615    0.0000 S   0  0  0  0  0  0  0  0  0  0  0  0
    3.1194   -0.1510    0.0000 C   0  0  0  0  0  0  0  0  0  0  0  0
    3.1194   -0.9760    0.0000 C   0  0  0  0  0  0  0  0  0  0  0  0
    2.4049   -1.3885    0.0000 C   0  0  0  0  0  0  0  0  0  0  0  0
    1.6905   -0.9760    0.0000 N   0  0  0  0  0  0  0  0  0  0  0  0
    0.8655   -0.9760    0.0000 C   0  0  0  0  0  0  0  0  0  0  0  0
    0.2821   -1.5593    0.0000 O   0  0  0  0  0  0  0  0  0  0  0  0
    2.4049   -2.2135    0.0000 C   0  0  0  0  0  0  0  0  0  0  0  0
    1.6905   -2.6260    0.0000 O   0  0  0  0  0  0  0  0  0  0  0  0
    3.1194   -2.6260    0.0000 O   0  0  0  0  0  0  0  0  0  0  0  0
    3.8339   -1.3885    0.0000 C   0  0  0  0  0  0  0  0  0  0  0  0
    3.8339   -2.2135    0.0000 O   0  0  0  0  0  0  0  0  0  0  0  0
    4.5483   -2.6260    0.0000 C   0  0  0  0  0  0  0  0  0  0  0  0
    4.5483   -3.4510    0.0000 O   0  0  0  0  0  0  0  0  0  0  0  0
    5.2628   -2.2135    0.0000 C   0  0  0  0  0  0  0  0  0  0  0  0
   -1.5252   -0.7916    0.0000 C   0  0  0  0  0  0  0  0  0  0  0  0
   -1.8209   -1.5618    0.0000 C   0  0  0  0  0  0  0  0  0  0  0  0
   -2.6447   -1.5186    0.0000 S   0  0  0  0  0  0  0  0  0  0  0  0
   -2.8583   -0.7217    0.0000 C   0  0  0  0  0  0  0  0  0  0  0  0
   -3.6285   -0.4260    0.0000 N   0  0  0  0  0  0  0  0  0  0  0  0
   -2.1664   -0.2724    0.0000 N   0  0  0  0  0  0  0  0  0  0  0  0
  1  2  1  0  0  0  0
  3  2  1  4  0  0  0
  3  4  2  0  0  0  0
  4  5  1  0  0  0  0
  5  6  2  0  0  0  0
  5  7  1  0  0  0  0
  8  7  1  1  0  0  0
  8  9  1  0  0  0  0
  9 10  1  0  0  0  0
 10 11  1  0  0  0  0
 11 12  1  0  0  0  0
 12 13  2  0  0  0  0
 13 14  1  0  0  0  0
  9 14  1  1  0  0  0
 14 15  1  0  0  0  0
  8 15  1  0  0  0  0
 15 16  2  0  0  0  0
 13 17  1  0  0  0  0
 17 18  2  0  0  0  0
 17 19  1  0  0  0  0
 12 20  1  0  0  0  0
 20 21  1  0  0  0  0
 21 22  1  0  0  0  0
 22 23  2  0  0  0  0
 22 24  1  0  0  0  0
  4 25  1  0  0  0  0
 25 26  4  0  0  0  0
 26 27  4  0  0  0  0
 27 28  4  0  0  0  0
 28 29  1  0  0  0  0
 28 30  4  0  0  0  0
 25 30  4  0  0  0  0
M  END

> <ChembankId>
1366

> <SMILES>
CON=C(C(=O)N[C@H]1[C@H]2SCC(=C(N2C1=O)C(=O)O)COC(=O)C)c3csc(N)n3

> <InChI>
1/C16H17N5O7S2/c1-6(22)28-3-7-4-29-14-10(13(24)21(14)11(7)15(25)26)19-12(23)9(20-27-2)8-5-30-16(17)18-8/h5,10,14H,3-4H2,1-2H3,(H2,17,18)(H,19,23)(H,25,26)

$$$$
1593
  Marvin  11101114192D          

 42 45  0  0  1  0            999 V2000
    4.2868   -2.4750    0.0000 N   0  0  0  0  0  0  0  0  0  0  0  0
    3.5724   -2.8875    0.0000 C   0  0  0  0  0  0  0  0  0  0  0  0
    2.8579   -2.4750    0.0000 C   0  0  2  0  0  0  0  0  0  0  0  0
    2.1434   -2.8875    0.0000 O   0  0  0  0  0  0  0  0  0  0  0  0
    1.4289   -2.4750    0.0000 C   0  0  2  0  0  0  0  0  0  0  0  0
    0.7145   -2.8875    0.0000 O   0  0  0  0  0  0  0  0  0  0  0  0
    0.7145   -3.7125    0.0000 C   0  0  1  0  0  0  0  0  0  0  0  0
    0.0470   -4.1974    0.0000 C   0  0  1  0  0  0  0  0  0  0  0  0
   -0.7376   -3.9425    0.0000 O   0  0  0  0  0  0  0  0  0  0  0  0
    0.3020   -4.9820    0.0000 C   0  0  2  0  0  0  0  0  0  0  0  0
   -0.1830   -5.6495    0.0000 O   0  0  0  0  0  0  0  0  0  0  0  0
    0.1526   -6.4032    0.0000 C   0  0  2  0  0  0  0  0  0  0  0  0
    0.9731   -6.4894    0.0000 C   0  0  1  0  0  0  0  0  0  0  0  0
    1.4580   -5.8220    0.0000 O   0  0  0  0  0  0  0  0  0  0  0  0
    1.3086   -7.2431    0.0000 C   0  0  2  0  0  0  0  0  0  0  0  0
    2.1291   -7.3293    0.0000 N   0  0  0  0  0  0  0  0  0  0  0  0
    0.8237   -7.9105    0.0000 C   0  0  0  0  0  0  0  0  0  0  0  0
    0.0032   -7.8243    0.0000 C   0  0  2  0  0  0  0  0  0  0  0  0
   -0.4817   -8.4917    0.0000 N   0  0  0  0  0  0  0  0  0  0  0  0
   -0.3323   -7.0706    0.0000 C   0  0  1  0  0  0  0  0  0  0  0  0
   -1.1528   -6.9844    0.0000 O   0  0  0  0  0  0  0  0  0  0  0  0
   -1.6377   -7.6518    0.0000 C   0  0  1  0  0  0  0  0  0  0  0  0
   -1.3022   -8.4055    0.0000 O   0  0  0  0  0  0  0  0  0  0  0  0
   -1.7871   -9.0729    0.0000 C   0  0  2  0  0  0  0  0  0  0  0  0
   -1.4515   -9.8266    0.0000 C   0  0  0  0  0  0  0  0  0  0  0  0
   -0.6310   -9.9128    0.0000 O   0  0  0  0  0  0  0  0  0  0  0  0
   -2.6076   -8.9867    0.0000 C   0  0  1  0  0  0  0  0  0  0  0  0
   -3.0925   -9.6541    0.0000 O   0  0  0  0  0  0  0  0  0  0  0  0
   -2.9431   -8.2330    0.0000 C   0  0  2  0  0  0  0  0  0  0  0  0
   -3.7636   -8.1468    0.0000 O   0  0  0  0  0  0  0  0  0  0  0  0
   -2.4582   -7.5656    0.0000 C   0  0  1  0  0  0  0  0  0  0  0  0
   -2.7938   -6.8119    0.0000 N   0  0  0  0  0  0  0  0  0  0  0  0
    1.1270   -4.9820    0.0000 O   0  0  0  0  0  0  0  0  0  0  0  0
    1.3819   -4.1974    0.0000 C   0  0  2  0  0  0  0  0  0  0  0  0
    2.1665   -3.9425    0.0000 C   0  0  0  0  0  0  0  0  0  0  0  0
    2.7796   -4.4945    0.0000 O   0  0  0  0  0  0  0  0  0  0  0  0
    1.4289   -1.6500    0.0000 C   0  0  2  0  0  0  0  0  0  0  0  0
    0.7145   -1.2375    0.0000 N   0  0  0  0  0  0  0  0  0  0  0  0
    2.1434   -1.2375    0.0000 C   0  0  1  0  0  0  0  0  0  0  0  0
    2.1434   -0.4125    0.0000 O   0  0  0  0  0  0  0  0  0  0  0  0
    2.8579   -1.6500    0.0000 C   0  0  2  0  0  0  0  0  0  0  0  0
    3.5724   -1.2375    0.0000 O   0  0  0  0  0  0  0  0  0  0  0  0
  1  2  1  0  0  0  0
  3  2  1  6  0  0  0
  3  4  1  0  0  0  0
  4  5  1  0  0  0  0
  5  6  1  6  0  0  0
  7  6  1  6  0  0  0
  7  8  1  0  0  0  0
  8  9  1  6  0  0  0
  8 10  1  0  0  0  0
 10 11  1  1  0  0  0
 12 11  1  6  0  0  0
 12 13  1  0  0  0  0
 13 14  1  1  0  0  0
 13 15  1  0  0  0  0
 15 16  1  6  0  0  0
 15 17  1  0  0  0  0
 17 18  1  0  0  0  0
 18 19  1  6  0  0  0
 18 20  1  0  0  0  0
 12 20  1  0  0  0  0
 20 21  1  1  0  0  0
 22 21  1  1  0  0  0
 22 23  1  0  0  0  0
 23 24  1  0  0  0  0
 24 25  1  6  0  0  0
 25 26  1  0  0  0  0
 24 27  1  0  0  0  0
 27 28  1  1  0  0  0
 27 29  1  0  0  0  0
 29 30  1  6  0  0  0
 29 31  1  0  0  0  0
 22 31  1  0  0  0  0
 31 32  1  1  0  0  0
 10 33  1  0  0  0  0
 33 34  1  0  0  0  0
  7 34  1  0  0  0  0
 34 35  1  1  0  0  0
 35 36  1  0  0  0  0
  5 37  1  0  0  0  0
 37 38  1  6  0  0  0
 37 39  1  0  0  0  0
 39 40  1  1  0  0  0
 39 41  1  0  0  0  0
  3 41  1  0  0  0  0
 41 42  1  6  0  0  0
M  END

> <ChembankId>
1593

> <SMILES>
NC[C@@H]1O[C@H](O[C@H]2[C@@H](O)[C@H](O[C@@H]3[C@@H](O)[C@H](N)C[C@H](N)[C@H]3O[C@H]4O[C@H](CO)[C@@H](O)[C@H](O)[C@H]4N)O[C@@H]2CO)[C@H](N)[C@@H](O)[C@@H]1O

> <InChI>
1/C23H45N5O14/c24-2-7-13(32)15(34)10(27)21(37-7)41-19-9(4-30)39-23(17(19)36)42-20-12(31)5(25)1-6(26)18(20)40-22-11(28)16(35)14(33)8(3-29)38-22/h5-23,29-36H,1-4,24-28H2

$$$$
1611
  Marvin  11101114192D          

 57 60  0  0  1  0            999 V2000
   12.8973    4.9380    0.0000 C   0  0  0  0  0  0  0  0  0  0  0  0
   12.1861    4.5200    0.0000 O   0  0  0  0  0  0  0  0  0  0  0  0
   11.4684    4.9270    0.0000 C   0  0  2  0  0  0  0  0  0  0  0  0
   10.7572    4.5090    0.0000 C   0  0  0  0  0  0  0  0  0  0  0  0
   10.0395    4.9160    0.0000 C   0  0  1  0  0  0  0  0  0  0  0  0
   10.0332    5.7410    0.0000 C   0  0  0  0  0  0  0  0  0  0  0  0
   10.7445    6.1590    0.0000 C   0  0  0  0  0  0  0  0  0  0  0  0
   11.4621    5.7520    0.0000 C   0  0  1  0  0  0  0  0  0  0  0  0
   12.1734    6.1699    0.0000 O   0  0  0  0  0  0  0  0  0  0  0  0
    9.3283    4.4980    0.0000 C   0  0  0  0  0  0  0  0  0  0  0  0
    8.6106    4.9050    0.0000 C   0  0  0  0  0  0  0  0  0  0  0  0
    8.6043    5.7300    0.0000 C   0  0  0  0  0  0  0  0  0  0  0  0
    7.8994    4.4871    0.0000 C   0  0  1  0  0  0  0  0  0  0  0  0
    7.9259    3.5847    0.0000 O   0  0  0  0  0  0  0  0  0  0  0  0
    8.4693    2.9639    0.0000 C   0  0  0  0  0  0  0  0  0  0  0  0
    9.2909    3.0386    0.0000 O   0  0  0  0  0  0  0  0  0  0  0  0
    8.0468    2.2553    0.0000 C   0  0  2  0  0  0  0  0  0  0  0  0
    8.2907    1.4671    0.0000 C   0  0  0  0  0  0  0  0  0  0  0  0
    7.7301    0.8619    0.0000 C   0  0  0  0  0  0  0  0  0  0  0  0
    6.9256    1.0447    0.0000 C   0  0  0  0  0  0  0  0  0  0  0  0
    6.6817    1.8329    0.0000 C   0  0  0  0  0  0  0  0  0  0  0  0
    7.2423    2.4381    0.0000 N   0  0  0  0  0  0  0  0  0  0  0  0
    6.4358    2.0324    0.0000 C   0  0  0  0  0  0  0  0  0  0  0  0
    6.4063    1.2079    0.0000 O   0  0  0  0  0  0  0  0  0  0  0  0
    5.7272    2.4549    0.0000 C   0  0  0  0  0  0  0  0  0  0  0  0
    5.7388    3.2798    0.0000 O   0  0  0  0  0  0  0  0  0  0  0  0
    5.0070    2.0524    0.0000 C   0  0  2  0  0  0  0  0  0  0  0  0
    5.7156    1.6299    0.0000 O   0  0  0  0  0  0  0  0  0  0  0  0
    4.2984    2.4749    0.0000 O   0  0  0  0  0  0  0  0  0  0  0  0
    3.5782    2.0725    0.0000 C   0  0  1  0  0  0  0  0  0  0  0  0
    3.5666    1.2476    0.0000 C   0  0  2  0  0  0  0  0  0  0  0  0
    4.2752    0.8251    0.0000 C   0  0  0  0  0  0  0  0  0  0  0  0
    4.9954    1.2275    0.0000 C   0  0  1  0  0  0  0  0  0  0  0  0
    5.7040    0.8050    0.0000 C   0  0  0  0  0  0  0  0  0  0  0  0
    2.8464    0.8451    0.0000 O   0  0  0  0  0  0  0  0  0  0  0  0
    2.8349    0.0202    0.0000 C   0  0  0  0  0  0  0  0  0  0  0  0
    2.8696    2.4950    0.0000 C   0  0  2  0  0  0  0  0  0  0  0  0
    2.8812    3.3199    0.0000 C   0  0  0  0  0  0  0  0  0  0  0  0
    2.1726    3.7424    0.0000 C   0  0  1  0  0  0  0  0  0  0  0  0
    1.4524    3.3400    0.0000 C   0  0  0  0  0  0  0  0  0  0  0  0
    2.1842    4.5673    0.0000 C   0  0  0  0  0  0  0  0  0  0  0  0
    2.9043    4.9697    0.0000 C   0  0  0  0  0  0  0  0  0  0  0  0
    3.6130    4.5472    0.0000 C   0  0  0  0  0  0  0  0  0  0  0  0
    4.3331    4.9497    0.0000 C   0  0  1  0  0  0  0  0  0  0  0  0
    4.3447    5.7746    0.0000 C   0  0  0  0  0  0  0  0  0  0  0  0
    3.6361    6.1971    0.0000 C   0  0  0  0  0  0  0  0  0  0  0  0
    3.6477    7.0220    0.0000 C   0  0  0  0  0  0  0  0  0  0  0  0
    5.0418    4.5272    0.0000 C   0  0  0  0  0  0  0  0  0  0  0  0
    5.0302    3.7023    0.0000 O   0  0  0  0  0  0  0  0  0  0  0  0
    5.7619    4.9296    0.0000 C   0  0  0  0  0  0  0  0  0  0  0  0
    6.4706    4.5071    0.0000 C   0  0  2  0  0  0  0  0  0  0  0  0
    6.4590    3.6822    0.0000 O   0  0  0  0  0  0  0  0  0  0  0  0
    7.1907    4.9096    0.0000 C   0  0  1  0  0  0  0  0  0  0  0  0
    7.2023    5.7345    0.0000 C   0  0  0  0  0  0  0  0  0  0  0  0
    2.9159    5.7947    0.0000 C   0  0  0  0  0  0  0  0  0  0  0  0
    2.1494    2.0925    0.0000 O   0  0  0  0  0  0  0  0  0  0  0  0
    1.4408    2.5150    0.0000 C   0  0  0  0  0  0  0  0  0  0  0  0
  1  2  1  0  0  0  0
  3  2  1  6  0  0  0
  3  4  1  0  0  0  0
  4  5  1  0  0  0  0
  5  6  1  0  0  0  0
  6  7  1  0  0  0  0
  7  8  1  0  0  0  0
  3  8  1  0  0  0  0
  8  9  1  1  0  0  0
  5 10  1  6  0  0  0
 10 11  2  0  0  0  0
 11 12  1  0  0  0  0
 13 11  1  1  0  0  0
 13 14  1  0  0  0  0
 14 15  1  0  0  0  0
 15 16  2  0  0  0  0
 15 17  1  0  0  0  0
 17 18  1  0  0  0  0
 18 19  1  0  0  0  0
 19 20  1  0  0  0  0
 20 21  1  0  0  0  0
 21 22  1  0  0  0  0
 17 22  1  6  0  0  0
 22 23  1  0  0  0  0
 23 24  2  0  0  0  0
 23 25  1  0  0  0  0
 25 26  2  0  0  0  0
 25 27  1  0  0  0  0
 27 28  1  6  0  0  0
 27 29  1  0  0  0  0
 30 29  1  1  0  0  0
 30 31  1  0  0  0  0
 31 32  1  0  0  0  0
 32 33  1  0  0  0  0
 27 33  1  0  0  0  0
 33 34  1  6  0  0  0
 31 35  1  6  0  0  0
 35 36  1  0  0  0  0
 30 37  1  0  0  0  0
 37 38  1  0  0  0  0
 38 39  1  0  0  0  0
 39 40  1  1  0  0  0
 39 41  1  0  0  0  0
 41 42  1  0  0  0  0
 42 43  2  0  0  0  0
 43 44  1  0  0  0  0
 44 45  1  1  0  0  0
 45 46  1  0  0  0  0
 46 47  2  0  0  0  0
 44 48  1  0  0  0  0
 48 49  2  0  0  0  0
 48 50  1  0  0  0  0
 50 51  1  0  0  0  0
 51 52  1  1  0  0  0
 51 53  1  0  0  0  0
 13 53  1  0  0  0  0
 53 54  1  1  0  0  0
 42 55  1  4  0  0  0
 37 56  1  1  0  0  0
 56 57  1  0  0  0  0
M  END

> <ChembankId>
1611

> <SMILES>
CO[C@@H]1C[C@@H](CC[C@H]1O)/C=C(\C)/[C@H]2OC(=O)[C@@H]3CCCCN3C(=O)C(=O)[C@]4(O)O[C@@H]([C@H](C[C@H]4C)OC)[C@H](C[C@@H](C)CC(=C[C@@H](CC=C)C(=O)C[C@H](O)[C@H]2C)C)OC

> <InChI>
1/C44H69NO12/c1-10-13-31-19-25(2)18-26(3)20-37(54-8)40-38(55-9)22-28(5)44(52,57-40)41(49)42(50)45-17-12-11-14-32(45)43(51)56-39(29(6)34(47)24-35(31)48)27(4)21-30-15-16-33(46)36(23-30)53-7/h10,19,21,26,28-34,36-40,46-47,52H,1,11-18,20,22-24H2,2-9H3

$$$$
1620
  Marvin  11101114192D          

 29 33  0  0  1  0            999 V2000
    1.3541   -4.9675    0.0000 C   0  0  0  0  0  0  0  0  0  0  0  0
    2.1774   -5.0205    0.0000 C   0  0  0  0  0  0  0  0  0  0  0  0
    2.5431   -5.7600    0.0000 O   0  0  0  0  0  0  0  0  0  0  0  0
    2.6350   -4.3340    0.0000 S   0  0  0  0  0  0  0  0  0  0  0  0
    2.2692   -3.5945    0.0000 C   0  0  2  0  0  0  0  0  0  0  0  0
    1.4459   -3.5415    0.0000 C   0  0  0  0  0  0  0  0  0  0  0  0
    1.0802   -2.8020    0.0000 C   0  0  0  0  0  0  0  0  0  0  0  0
    0.2569   -2.7490    0.0000 C   0  0  0  0  0  0  0  0  0  0  0  0
   -0.1088   -2.0095    0.0000 C   0  0  0  0  0  0  0  0  0  0  0  0
   -0.9321   -1.9565    0.0000 O   0  0  0  0  0  0  0  0  0  0  0  0
    0.3487   -1.3230    0.0000 C   0  0  0  0  0  0  0  0  0  0  0  0
    1.1720   -1.3760    0.0000 C   0  0  0  0  0  0  0  0  0  0  0  0
    1.5378   -2.1155    0.0000 C   0  0  2  0  0  0  0  0  0  0  0  0
    1.9953   -1.4290    0.0000 C   0  0  0  0  0  0  0  0  0  0  0  0
    2.3611   -2.1685    0.0000 C   0  0  2  0  0  0  0  0  0  0  0  0
    2.8186   -1.4820    0.0000 C   0  0  0  0  0  0  0  0  0  0  0  0
    3.6419   -1.5351    0.0000 C   0  0  0  0  0  0  0  0  0  0  0  0
    4.0076   -2.2746    0.0000 C   0  0  2  0  0  0  0  0  0  0  0  0
    4.3125   -1.5080    0.0000 C   0  0  0  0  0  0  0  0  0  0  0  0
    3.5501   -2.9611    0.0000 C   0  0  2  0  0  0  0  0  0  0  0  0
    4.0616   -3.6084    0.0000 C   0  0  0  0  0  0  0  0  0  0  0  0
    4.8353   -3.3219    0.0000 C   0  0  0  0  0  0  0  0  0  0  0  0
    4.8019   -2.4976    0.0000 C   0  0  1  0  0  0  0  0  0  0  0  0
    4.7686   -1.6733    0.0000 C   0  0  0  0  0  0  0  0  0  0  0  0
    5.5423   -1.3868    0.0000 C   0  0  0  0  0  0  0  0  0  0  0  0
    6.0538   -2.0341    0.0000 C   0  0  0  0  0  0  0  0  0  0  0  0
    6.8781   -2.0008    0.0000 O   0  0  0  0  0  0  0  0  0  0  0  0
    5.5962   -2.7206    0.0000 O   0  0  0  0  0  0  0  0  0  0  0  0
    2.7268   -2.9080    0.0000 C   0  0  1  0  0  0  0  0  0  0  0  0
  1  2  1  0  0  0  0
  2  3  2  0  0  0  0
  2  4  1  0  0  0  0
  5  4  1  6  0  0  0
  5  6  1  0  0  0  0
  6  7  1  0  0  0  0
  7  8  2  0  0  0  0
  8  9  1  0  0  0  0
  9 10  2  0  0  0  0
  9 11  1  0  0  0  0
 11 12  1  0  0  0  0
 12 13  1  0  0  0  0
  7 13  1  0  0  0  0
 13 14  1  6  0  0  0
 13 15  1  0  0  0  0
 15 16  1  6  0  0  0
 16 17  1  0  0  0  0
 17 18  1  0  0  0  0
 18 19  1  6  0  0  0
 18 20  1  0  0  0  0
 20 21  1  6  0  0  0
 21 22  1  0  0  0  0
 22 23  1  0  0  0  0
 18 23  1  0  0  0  0
 23 24  1  0  0  0  0
 24 25  1  0  0  0  0
 25 26  1  0  0  0  0
 26 27  2  0  0  0  0
 26 28  1  0  0  0  0
 23 28  1  1  0  0  0
 20 29  1  0  0  0  0
  5 29  1  0  0  0  0
 29 15  1  1  0  0  0
M  END

> <ChembankId>
1620

> <SMILES>
CC(=O)S[C@@H]1CC2=CC(=O)CC[C@@]2(C)[C@@H]3CC[C@]4(C)[C@H](CC[C@]54CCC(=O)O5)[C@@H]13

> <InChI>
1/C24H32O4S/c1-14(25)29-19-13-15-12-16(26)4-8-22(15,2)17-5-9-23(3)18(21(17)19)6-10-24(23)11-7-20(27)28-24/h12,17-19,21H,4-11,13H2,1-3H3

$$$$
1637
  Marvin  11101114192D          

 21 21  0  0  0  0            999 V2000
   -3.5097    0.8663    0.0000 C   0  0  0  0  0  0  0  0  0  0  0  0
   -4.2241    0.4538    0.0000 N   0  0  0  0  0  0  0  0  0  0  0  0
   -4.2241   -0.3712    0.0000 C   0  0  0  0  0  0  0  0  0  0  0  0
   -4.9386   -0.7837    0.0000 C   0  0  0  0  0  0  0  0  0  0  0  0
   -4.9386   -1.6087    0.0000 N   0  3  0  0  0  0  0  0  0  0  0  0
   -5.6531   -2.0212    0.0000 O   0  0  0  0  0  0  0  0  0  0  0  0
   -4.2241   -2.0212    0.0000 O   0  5  0  0  0  0  0  0  0  0  0  0
   -3.5097   -0.7837    0.0000 N   0  0  0  0  0  0  0  0  0  0  0  0
   -2.7952   -0.3712    0.0000 C   0  0  0  0  0  0  0  0  0  0  0  0
   -2.0807   -0.7837    0.0000 C   0  0  0  0  0  0  0  0  0  0  0  0
   -1.3663   -0.3712    0.0000 S   0  0  0  0  0  0  0  0  0  0  0  0
   -0.6518   -0.7837    0.0000 C   0  0  0  0  0  0  0  0  0  0  0  0
    0.0627   -0.3712    0.0000 C   0  0  0  0  0  0  0  0  0  0  0  0
    0.1489    0.4493    0.0000 C   0  0  0  0  0  0  0  0  0  0  0  0
    0.9559    0.6209    0.0000 S   0  0  0  0  0  0  0  0  0  0  0  0
    1.3684   -0.0936    0.0000 C   0  0  0  0  0  0  0  0  0  0  0  0
    2.1889   -0.1799    0.0000 C   0  0  0  0  0  0  0  0  0  0  0  0
    2.5244   -0.9335    0.0000 N   0  0  0  0  0  0  0  0  0  0  0  0
    3.3449   -1.0198    0.0000 C   0  0  0  0  0  0  0  0  0  0  0  0
    2.0395   -1.6010    0.0000 C   0  0  0  0  0  0  0  0  0  0  0  0
    0.8164   -0.7067    0.0000 N   0  0  0  0  0  0  0  0  0  0  0  0
  1  2  1  0  0  0  0
  2  3  1  0  0  0  0
  3  4  2  0  0  0  0
  4  5  1  0  0  0  0
  5  6  2  0  0  0  0
  5  7  1  0  0  0  0
  3  8  1  0  0  0  0
  8  9  1  0  0  0  0
  9 10  1  0  0  0  0
 10 11  1  0  0  0  0
 11 12  1  0  0  0  0
 12 13  1  0  0  0  0
 13 14  4  0  0  0  0
 14 15  4  0  0  0  0
 15 16  4  0  0  0  0
 16 17  1  0  0  0  0
 17 18  1  0  0  0  0
 18 19  1  0  0  0  0
 18 20  1  0  0  0  0
 16 21  4  0  0  0  0
 13 21  4  0  0  0  0
M  CHG  2   5   1   7  -1
M  END

> <ChembankId>
1637

> <SMILES>
CN/C(=C/[N+](=O)[O-])/NCCSCc1csc(CN(C)C)n1

> <InChI>
1/C12H21N5O2S2/c1-13-11(6-17(18)19)14-4-5-20-8-10-9-21-12(15-10)7-16(2)3/h6,9,13-14H,4-5,7-8H2,1-3H3

$$$$
1638
  Marvin  11101114192D          

 28 29  0  0  1  0            999 V2000
   -1.2618   -1.1194    0.0000 C   0  0  0  0  0  0  0  0  0  0  0  0
   -1.2618   -1.9444    0.0000 C   0  0  1  0  0  0  0  0  0  0  0  0
   -0.6785   -2.5277    0.0000 C   0  0  2  0  0  0  0  0  0  0  0  0
    0.1465   -2.5277    0.0000 N   0  0  0  0  0  0  0  0  0  0  0  0
    0.5590   -3.2422    0.0000 C   0  0  0  0  0  0  0  0  0  0  0  0
    0.1465   -3.9567    0.0000 O   0  0  0  0  0  0  0  0  0  0  0  0
    1.3840   -3.2422    0.0000 C   0  0  0  0  0  0  0  0  0  0  0  0
    1.7965   -3.9567    0.0000 N   0  0  0  0  0  0  0  0  0  0  0  0
    2.6215   -3.9567    0.0000 O   0  0  0  0  0  0  0  0  0  0  0  0
    3.0340   -4.6712    0.0000 C   0  0  0  0  0  0  0  0  0  0  0  0
    3.7485   -4.2587    0.0000 C   0  0  0  0  0  0  0  0  0  0  0  0
    2.3196   -5.0837    0.0000 C   0  0  0  0  0  0  0  0  0  0  0  0
    3.4465   -5.3856    0.0000 C   0  0  0  0  0  0  0  0  0  0  0  0
    4.2715   -5.3856    0.0000 O   0  0  0  0  0  0  0  0  0  0  0  0
    3.0340   -6.1001    0.0000 O   0  0  0  0  0  0  0  0  0  0  0  0
    1.7965   -2.5277    0.0000 C   0  0  0  0  0  0  0  0  0  0  0  0
    1.4610   -1.7741    0.0000 C   0  0  0  0  0  0  0  0  0  0  0  0
    2.0741   -1.2220    0.0000 S   0  0  0  0  0  0  0  0  0  0  0  0
    2.7885   -1.6345    0.0000 C   0  0  0  0  0  0  0  0  0  0  0  0
    3.5422   -1.2990    0.0000 N   0  0  0  0  0  0  0  0  0  0  0  0
    2.6170   -2.4415    0.0000 N   0  0  0  0  0  0  0  0  0  0  0  0
   -1.2618   -3.1111    0.0000 C   0  0  0  0  0  0  0  0  0  0  0  0
   -1.2618   -3.9361    0.0000 O   0  0  0  0  0  0  0  0  0  0  0  0
   -1.8452   -2.5277    0.0000 N   0  0  0  0  0  0  0  0  0  0  0  0
   -2.6702   -2.5277    0.0000 S   0  0  0  0  0  0  0  0  0  0  0  0
   -3.4952   -2.5277    0.0000 O   0  0  0  0  0  0  0  0  0  0  0  0
   -2.6702   -1.7027    0.0000 O   0  0  0  0  0  0  0  0  0  0  0  0
   -2.6702   -3.3527    0.0000 O   0  0  0  0  0  0  0  0  0  0  0  0
  2  1  1  1  0  0  0
  2  3  1  0  0  0  0
  3  4  1  6  0  0  0
  4  5  1  0  0  0  0
  5  6  2  0  0  0  0
  5  7  1  0  0  0  0
  7  8  2  0  0  0  0
  8  9  1  4  0  0  0
  9 10  1  0  0  0  0
 10 11  1  0  0  0  0
 10 12  1  0  0  0  0
 10 13  1  0  0  0  0
 13 14  2  0  0  0  0
 13 15  1  0  0  0  0
  7 16  1  0  0  0  0
 16 17  4  0  0  0  0
 17 18  4  0  0  0  0
 18 19  4  0  0  0  0
 19 20  1  0  0  0  0
 19 21  4  0  0  0  0
 16 21  4  0  0  0  0
  3 22  1  0  0  0  0
 22 23  2  0  0  0  0
 22 24  1  0  0  0  0
  2 24  1  0  0  0  0
 24 25  1  0  0  0  0
 25 26  2  0  0  0  0
 25 27  2  0  0  0  0
 25 28  1  0  0  0  0
M  END

> <ChembankId>
1638

> <SMILES>
C[C@H]1[C@H](NC(=O)C(=NOC(C)(C)C(=O)O)c2csc(N)n2)C(=O)N1S(=O)(=O)O

> <InChI>
1/C13H17N5O8S2/c1-5-7(10(20)18(5)28(23,24)25)16-9(19)8(6-4-27-12(14)15-6)17-26-13(2,3)11(21)22/h4-5,7H,1-3H3,(H2,14,15)(H,16,19)(H,21,22)(H,23,24,25)

$$$$
1645
  Marvin  11101114192D          

 18 18  0  0  1  0            999 V2000
   -2.8579   -1.6500    0.0000 C   0  0  0  0  0  0  0  0  0  0  0  0
   -2.1434   -2.0625    0.0000 C   0  0  0  0  0  0  0  0  0  0  0  0
   -2.1434   -2.8875    0.0000 C   0  0  0  0  0  0  0  0  0  0  0  0
   -1.4289   -1.6500    0.0000 N   0  0  0  0  0  0  0  0  0  0  0  0
   -0.7145   -2.0625    0.0000 C   0  0  0  0  0  0  0  0  0  0  0  0
    0.0000   -1.6500    0.0000 C   0  0  2  0  0  0  0  0  0  0  0  0
    0.0000   -0.8250    0.0000 O   0  0  0  0  0  0  0  0  0  0  0  0
    0.7145   -2.0625    0.0000 C   0  0  0  0  0  0  0  0  0  0  0  0
    1.4289   -1.6500    0.0000 C   0  0  0  0  0  0  0  0  0  0  0  0
    2.1434   -2.0625    0.0000 C   0  0  0  0  0  0  0  0  0  0  0  0
    2.1434   -2.8875    0.0000 C   0  0  0  0  0  0  0  0  0  0  0  0
    2.8579   -3.3000    0.0000 N   0  0  0  0  0  0  0  0  0  0  0  0
    3.5724   -2.8875    0.0000 S   0  0  0  0  0  0  0  0  0  0  0  0
    4.2868   -2.4750    0.0000 O   0  0  0  0  0  0  0  0  0  0  0  0
    3.9849   -3.6020    0.0000 O   0  0  0  0  0  0  0  0  0  0  0  0
    3.1599   -2.1730    0.0000 C   0  0  0  0  0  0  0  0  0  0  0  0
    1.4289   -3.3000    0.0000 C   0  0  0  0  0  0  0  0  0  0  0  0
    0.7145   -2.8875    0.0000 C   0  0  0  0  0  0  0  0  0  0  0  0
  1  2  1  0  0  0  0
  2  3  1  0  0  0  0
  2  4  1  0  0  0  0
  4  5  1  0  0  0  0
  5  6  1  0  0  0  0
  6  7  1  6  0  0  0
  6  8  1  0  0  0  0
  8  9  4  0  0  0  0
  9 10  4  0  0  0  0
 10 11  4  0  0  0  0
 11 12  1  0  0  0  0
 12 13  1  0  0  0  0
 13 14  2  0  0  0  0
 13 15  2  0  0  0  0
 13 16  1  0  0  0  0
 11 17  4  0  0  0  0
 17 18  4  0  0  0  0
  8 18  4  0  0  0  0
M  END

> <ChembankId>
1645

> <SMILES>
CC(C)NC[C@H](O)c1ccc(NS(=O)(=O)C)cc1

> <InChI>
1/C12H20N2O3S/c1-9(2)13-8-12(15)10-4-6-11(7-5-10)14-18(3,16)17/h4-7,9,12-15H,8H2,1-3H3

$$$$
1654
  Marvin  11101114192D          

 33 37  0  0  1  0            999 V2000
   -2.1434   -8.6625    0.0000 C   0  0  0  0  0  0  0  0  0  0  0  0
   -2.1434   -7.8375    0.0000 O   0  0  0  0  0  0  0  0  0  0  0  0
   -1.4289   -7.4250    0.0000 C   0  0  0  0  0  0  0  0  0  0  0  0
   -1.4289   -6.6000    0.0000 C   0  0  0  0  0  0  0  0  0  0  0  0
   -0.7145   -6.1875    0.0000 C   0  0  0  0  0  0  0  0  0  0  0  0
   -0.7145   -5.3625    0.0000 N   0  0  0  0  0  0  0  0  0  0  0  0
    0.0000   -4.9500    0.0000 C   0  0  0  0  0  0  0  0  0  0  0  0
    0.7145   -5.3625    0.0000 N   0  0  0  0  0  0  0  0  0  0  0  0
    0.7145   -6.1875    0.0000 C   0  0  0  0  0  0  0  0  0  0  0  0
    1.4289   -6.6000    0.0000 N   0  0  0  0  0  0  0  0  0  0  0  0
    0.0000   -6.6000    0.0000 C   0  0  0  0  0  0  0  0  0  0  0  0
    0.0000   -7.4250    0.0000 C   0  0  0  0  0  0  0  0  0  0  0  0
   -0.7145   -7.8375    0.0000 C   0  0  0  0  0  0  0  0  0  0  0  0
   -0.7145   -8.6625    0.0000 O   0  0  0  0  0  0  0  0  0  0  0  0
    0.0000   -9.0750    0.0000 C   0  0  0  0  0  0  0  0  0  0  0  0
    0.0000   -4.1250    0.0000 N   0  0  0  0  0  0  0  0  0  0  0  0
   -0.7145   -3.7125    0.0000 C   0  0  0  0  0  0  0  0  0  0  0  0
   -0.7145   -2.8875    0.0000 C   0  0  0  0  0  0  0  0  0  0  0  0
    0.0000   -2.4750    0.0000 N   0  0  0  0  0  0  0  0  0  0  0  0
    0.7145   -2.8875    0.0000 C   0  0  0  0  0  0  0  0  0  0  0  0
    0.7145   -3.7125    0.0000 C   0  0  0  0  0  0  0  0  0  0  0  0
    0.0000   -1.6500    0.0000 C   0  0  0  0  0  0  0  0  0  0  0  0
   -0.7145   -1.2375    0.0000 O   0  0  0  0  0  0  0  0  0  0  0  0
    0.7145   -1.2375    0.0000 C   0  0  2  0  0  0  0  0  0  0  0  0
    0.7145   -0.4125    0.0000 C   0  0  0  0  0  0  0  0  0  0  0  0
    1.4289    0.0000    0.0000 O   0  0  0  0  0  0  0  0  0  0  0  0
    2.1434   -0.4125    0.0000 C   0  0  0  0  0  0  0  0  0  0  0  0
    2.8579    0.0000    0.0000 C   0  0  0  0  0  0  0  0  0  0  0  0
    3.5724   -0.4125    0.0000 C   0  0  0  0  0  0  0  0  0  0  0  0
    3.5724   -1.2375    0.0000 C   0  0  0  0  0  0  0  0  0  0  0  0
    2.8579   -1.6500    0.0000 C   0  0  0  0  0  0  0  0  0  0  0  0
    2.1434   -1.2375    0.0000 C   0  0  0  0  0  0  0  0  0  0  0  0
    1.4289   -1.6500    0.0000 O   0  0  0  0  0  0  0  0  0  0  0  0
  1  2  1  0  0  0  0
  2  3  1  0  0  0  0
  3  4  4  0  0  0  0
  4  5  4  0  0  0  0
  5  6  4  0  0  0  0
  6  7  4  0  0  0  0
  7  8  4  0  0  0  0
  8  9  4  0  0  0  0
  9 10  1  0  0  0  0
  9 11  4  0  0  0  0
  5 11  4  0  0  0  0
 11 12  4  0  0  0  0
 12 13  4  0  0  0  0
  3 13  4  0  0  0  0
 13 14  1  0  0  0  0
 14 15  1  0  0  0  0
  7 16  1  0  0  0  0
 16 17  1  0  0  0  0
 17 18  1  0  0  0  0
 18 19  1  0  0  0  0
 19 20  1  0  0  0  0
 20 21  1  0  0  0  0
 16 21  1  0  0  0  0
 19 22  1  0  0  0  0
 22 23  2  0  0  0  0
 24 22  1  6  0  0  0
 24 25  1  0  0  0  0
 25 26  1  0  0  0  0
 26 27  1  0  0  0  0
 27 28  4  0  0  0  0
 28 29  4  0  0  0  0
 29 30  4  0  0  0  0
 30 31  4  0  0  0  0
 31 32  4  0  0  0  0
 27 32  4  0  0  0  0
 32 33  1  0  0  0  0
 24 33  1  0  0  0  0
M  END

> <ChembankId>
1654

> <SMILES>
COc1cc2nc(nc(N)c2cc1OC)N3CCN(CC3)C(=O)[C@@H]4COc5ccccc5O4

> <InChI>
1/C23H25N5O5/c1-30-18-11-14-15(12-19(18)31-2)25-23(26-21(14)24)28-9-7-27(8-10-28)22(29)20-13-32-16-5-3-4-6-17(16)33-20/h3-6,11-12,20H,7-10,13H2,1-2H3,(H2,24,25,26)

$$$$
1656
  Marvin  11101114192D          

 24 26  0  0  1  0            999 V2000
   -0.8846    1.5991    0.0000 N   0  0  0  0  0  0  0  0  0  0  0  0
   -0.0877    1.8126    0.0000 C   0  0  2  0  0  0  0  0  0  0  0  0
    0.4956    1.2293    0.0000 C   0  0  0  0  0  0  0  0  0  0  0  0
    1.2925    1.4428    0.0000 O   0  0  0  0  0  0  0  0  0  0  0  0
    0.2821    0.4324    0.0000 N   0  0  0  0  0  0  0  0  0  0  0  0
    0.8655   -0.1510    0.0000 C   0  0  2  0  0  0  0  0  0  0  0  0
    1.6905   -0.1510    0.0000 C   0  0  1  0  0  0  0  0  0  0  0  0
    2.4049    0.2615    0.0000 S   0  0  0  0  0  0  0  0  0  0  0  0
    3.1194   -0.1510    0.0000 C   0  0  0  0  0  0  0  0  0  0  0  0
    3.1194   -0.9760    0.0000 C   0  0  0  0  0  0  0  0  0  0  0  0
    2.4049   -1.3885    0.0000 C   0  0  0  0  0  0  0  0  0  0  0  0
    1.6905   -0.9760    0.0000 N   0  0  0  0  0  0  0  0  0  0  0  0
    0.8655   -0.9760    0.0000 C   0  0  0  0  0  0  0  0  0  0  0  0
    0.2821   -1.5593    0.0000 O   0  0  0  0  0  0  0  0  0  0  0  0
    2.4049   -2.2135    0.0000 C   0  0  0  0  0  0  0  0  0  0  0  0
    3.1194   -2.6260    0.0000 O   0  0  0  0  0  0  0  0  0  0  0  0
    1.6905   -2.6260    0.0000 O   0  0  0  0  0  0  0  0  0  0  0  0
    3.8339   -1.3885    0.0000 Cl  0  0  0  0  0  0  0  0  0  0  0  0
    0.1258    2.6095    0.0000 C   0  0  0  0  0  0  0  0  0  0  0  0
   -0.4576    3.1929    0.0000 C   0  0  0  0  0  0  0  0  0  0  0  0
   -0.2441    3.9898    0.0000 C   0  0  0  0  0  0  0  0  0  0  0  0
    0.5528    4.2033    0.0000 C   0  0  0  0  0  0  0  0  0  0  0  0
    1.1362    3.6199    0.0000 C   0  0  0  0  0  0  0  0  0  0  0  0
    0.9227    2.8230    0.0000 C   0  0  0  0  0  0  0  0  0  0  0  0
  2  1  1  1  0  0  0
  2  3  1  0  0  0  0
  3  4  2  0  0  0  0
  3  5  1  0  0  0  0
  6  5  1  6  0  0  0
  6  7  1  0  0  0  0
  7  8  1  0  0  0  0
  8  9  1  0  0  0  0
  9 10  1  0  0  0  0
 10 11  2  0  0  0  0
 11 12  1  0  0  0  0
  7 12  1  1  0  0  0
 12 13  1  0  0  0  0
  6 13  1  0  0  0  0
 13 14  2  0  0  0  0
 11 15  1  0  0  0  0
 15 16  2  0  0  0  0
 15 17  1  0  0  0  0
 10 18  1  0  0  0  0
  2 19  1  0  0  0  0
 19 20  4  0  0  0  0
 20 21  4  0  0  0  0
 21 22  4  0  0  0  0
 22 23  4  0  0  0  0
 23 24  4  0  0  0  0
 19 24  4  0  0  0  0
M  END

> <ChembankId>
1656

> <SMILES>
N[C@H](C(=O)N[C@@H]1[C@H]2SCC(=C(N2C1=O)C(=O)O)Cl)c3ccccc3

> <InChI>
1/C15H14ClN3O4S/c16-8-6-24-14-10(13(21)19(14)11(8)15(22)23)18-12(20)9(17)7-4-2-1-3-5-7/h1-5,9-10,14H,6,17H2,(H,18,20)(H,22,23)

$$$$
1660
  Marvin  11101114192D          

 24 26  0  0  1  0            999 V2000
    1.2474    1.5365    0.0000 C   0  0  0  0  0  0  0  0  0  0  0  0
    1.9619    1.1240    0.0000 N   0  0  0  0  0  0  0  0  0  0  0  0
    1.9619    0.2990    0.0000 C   0  0  0  0  0  0  0  0  0  0  0  0
    2.6763    1.5365    0.0000 C   0  0  0  0  0  0  0  0  0  0  0  0
    3.3908    1.1240    0.0000 C   0  0  0  0  0  0  0  0  0  0  0  0
    4.1053    1.5365    0.0000 C   0  0  0  0  0  0  0  0  0  0  0  0
    4.8197    1.1240    0.0000 C   0  0  2  0  0  0  0  0  0  0  0  0
    5.6044    0.8691    0.0000 O   0  0  0  0  0  0  0  0  0  0  0  0
    5.6044    0.0441    0.0000 C   0  0  0  0  0  0  0  0  0  0  0  0
    4.8197   -0.2109    0.0000 C   0  0  0  0  0  0  0  0  0  0  0  0
    4.4842   -0.9645    0.0000 C   0  0  0  0  0  0  0  0  0  0  0  0
    3.6637   -1.0508    0.0000 C   0  0  0  0  0  0  0  0  0  0  0  0
    3.3281   -1.8044    0.0000 C   0  0  0  0  0  0  0  0  0  0  0  0
    2.9926   -2.5581    0.0000 N   0  0  0  0  0  0  0  0  0  0  0  0
    3.1788   -0.3833    0.0000 C   0  0  0  0  0  0  0  0  0  0  0  0
    3.5143    0.3703    0.0000 C   0  0  0  0  0  0  0  0  0  0  0  0
    4.3348    0.4566    0.0000 C   0  0  0  0  0  0  0  0  0  0  0  0
    5.1553    1.8777    0.0000 C   0  0  0  0  0  0  0  0  0  0  0  0
    4.6704    2.5451    0.0000 C   0  0  0  0  0  0  0  0  0  0  0  0
    5.0059    3.2988    0.0000 C   0  0  0  0  0  0  0  0  0  0  0  0
    5.8264    3.3850    0.0000 C   0  0  0  0  0  0  0  0  0  0  0  0
    6.1620    4.1387    0.0000 F   0  0  0  0  0  0  0  0  0  0  0  0
    6.3113    2.7176    0.0000 C   0  0  0  0  0  0  0  0  0  0  0  0
    5.9758    1.9639    0.0000 C   0  0  0  0  0  0  0  0  0  0  0  0
  1  2  1  0  0  0  0
  2  3  1  0  0  0  0
  2  4  1  0  0  0  0
  4  5  1  0  0  0  0
  5  6  1  0  0  0  0
  7  6  1  6  0  0  0
  7  8  1  0  0  0  0
  8  9  1  0  0  0  0
  9 10  1  0  0  0  0
 10 11  4  0  0  0  0
 11 12  4  0  0  0  0
 12 13  1  0  0  0  0
 13 14  3  0  0  0  0
 12 15  4  0  0  0  0
 15 16  4  0  0  0  0
 16 17  4  0  0  0  0
 10 17  4  0  0  0  0
  7 17  1  0  0  0  0
  7 18  1  1  0  0  0
 18 19  4  0  0  0  0
 19 20  4  0  0  0  0
 20 21  4  0  0  0  0
 21 22  1  0  0  0  0
 21 23  4  0  0  0  0
 23 24  4  0  0  0  0
 18 24  4  0  0  0  0
M  END

> <ChembankId>
1660

> <SMILES>
CN(C)CCC[C@@]1(OCc2cc(C#N)ccc21)c3ccc(F)cc3

> <InChI>
1/C20H21FN2O/c1-23(2)11-3-10-20(17-5-7-18(21)8-6-17)19-9-4-15(13-22)12-16(19)14-24-20/h4-9,12H,3,10-11,14H2,1-2H3

$$$$
1678
  Marvin  11101114192D          

 26 27  0  0  1  0            999 V2000
   -5.5243   -2.3645    0.0000 C   0  0  0  0  0  0  0  0  0  0  0  0
   -4.8099   -2.7770    0.0000 C   0  0  0  0  0  0  0  0  0  0  0  0
   -4.0954   -2.3645    0.0000 N   0  0  0  0  0  0  0  0  0  0  0  0
   -4.0954   -1.5395    0.0000 C   0  0  0  0  0  0  0  0  0  0  0  0
   -3.3809   -1.1270    0.0000 C   0  0  0  0  0  0  0  0  0  0  0  0
   -3.3809   -2.7770    0.0000 C   0  0  0  0  0  0  0  0  0  0  0  0
   -2.6664   -2.3645    0.0000 C   0  0  0  0  0  0  0  0  0  0  0  0
   -1.9520   -1.9520    0.0000 C   0  0  0  0  0  0  0  0  0  0  0  0
   -1.2375   -1.5395    0.0000 C   0  0  0  0  0  0  0  0  0  0  0  0
   -0.5230   -1.9520    0.0000 O   0  0  0  0  0  0  0  0  0  0  0  0
    0.1914   -1.5395    0.0000 C   0  0  0  0  0  0  0  0  0  0  0  0
    0.1914   -0.7145    0.0000 O   0  0  0  0  0  0  0  0  0  0  0  0
    0.9059   -1.9520    0.0000 C   0  0  1  0  0  0  0  0  0  0  0  0
    0.4934   -2.6664    0.0000 O   0  0  0  0  0  0  0  0  0  0  0  0
    1.6204   -2.3645    0.0000 C   0  0  0  0  0  0  0  0  0  0  0  0
    2.3349   -1.9520    0.0000 C   0  0  0  0  0  0  0  0  0  0  0  0
    3.0493   -2.3645    0.0000 C   0  0  0  0  0  0  0  0  0  0  0  0
    3.0493   -3.1895    0.0000 C   0  0  0  0  0  0  0  0  0  0  0  0
    2.3349   -3.6020    0.0000 C   0  0  0  0  0  0  0  0  0  0  0  0
    1.6204   -3.1895    0.0000 C   0  0  0  0  0  0  0  0  0  0  0  0
    1.3184   -1.2375    0.0000 C   0  0  0  0  0  0  0  0  0  0  0  0
    0.9059   -0.5230    0.0000 C   0  0  0  0  0  0  0  0  0  0  0  0
    1.3184    0.1914    0.0000 C   0  0  0  0  0  0  0  0  0  0  0  0
    2.1434    0.1914    0.0000 C   0  0  0  0  0  0  0  0  0  0  0  0
    2.5559   -0.5230    0.0000 C   0  0  0  0  0  0  0  0  0  0  0  0
    2.1434   -1.2375    0.0000 C   0  0  0  0  0  0  0  0  0  0  0  0
  1  2  1  0  0  0  0
  2  3  1  0  0  0  0
  3  4  1  0  0  0  0
  4  5  1  0  0  0  0
  3  6  1  0  0  0  0
  6  7  1  0  0  0  0
  7  8  3  0  0  0  0
  8  9  1  0  0  0  0
  9 10  1  0  0  0  0
 10 11  1  0  0  0  0
 11 12  2  0  0  0  0
 11 13  1  0  0  0  0
 13 14  1  1  0  0  0
 13 15  1  0  0  0  0
 15 16  1  0  0  0  0
 16 17  1  0  0  0  0
 17 18  1  0  0  0  0
 18 19  1  0  0  0  0
 19 20  1  0  0  0  0
 15 20  1  0  0  0  0
 13 21  1  1  0  0  0
 21 22  4  0  0  0  0
 22 23  4  0  0  0  0
 23 24  4  0  0  0  0
 24 25  4  0  0  0  0
 25 26  4  0  0  0  0
 21 26  4  0  0  0  0
M  END

> <ChembankId>
1678

> <SMILES>
CCN(CC)CC#CCOC(=O)[C@@](O)(C1CCCCC1)c2ccccc2

> <InChI>
1/C22H31NO3/c1-3-23(4-2)17-11-12-18-26-21(24)22(25,19-13-7-5-8-14-19)20-15-9-6-10-16-20/h5,7-8,13-14,20,25H,3-4,6,9-10,15-18H2,1-2H3

$$$$
1684
  Marvin  11101114192D          

 27 29  0  0  1  0            999 V2000
    0.8580    1.5479    0.0000 C   0  0  0  0  0  0  0  0  0  0  0  0
    1.6650    1.7194    0.0000 O   0  0  0  0  0  0  0  0  0  0  0  0
    1.9199    2.5041    0.0000 C   0  0  0  0  0  0  0  0  0  0  0  0
    1.3679    3.1172    0.0000 O   0  0  0  0  0  0  0  0  0  0  0  0
    2.7269    2.6756    0.0000 C   0  0  0  0  0  0  0  0  0  0  0  0
    2.9818    3.4602    0.0000 C   0  0  0  0  0  0  0  0  0  0  0  0
    2.4298    4.0733    0.0000 C   0  0  0  0  0  0  0  0  0  0  0  0
    3.7888    3.6317    0.0000 N   0  0  0  0  0  0  0  0  0  0  0  0
    4.3408    3.0186    0.0000 C   0  0  0  0  0  0  0  0  0  0  0  0
    4.0859    2.2340    0.0000 C   0  0  0  0  0  0  0  0  0  0  0  0
    3.2789    2.0625    0.0000 C   0  0  2  0  0  0  0  0  0  0  0  0
    3.2789    1.2375    0.0000 C   0  0  0  0  0  0  0  0  0  0  0  0
    3.9934    0.8250    0.0000 C   0  0  0  0  0  0  0  0  0  0  0  0
    3.9934    0.0000    0.0000 C   0  0  0  0  0  0  0  0  0  0  0  0
    3.2789   -0.4125    0.0000 C   0  0  0  0  0  0  0  0  0  0  0  0
    2.5645    0.0000    0.0000 C   0  0  0  0  0  0  0  0  0  0  0  0
    1.7798   -0.2549    0.0000 N   0  0  0  0  0  0  0  0  0  0  0  0
    1.2949    0.4125    0.0000 O   0  0  0  0  0  0  0  0  0  0  0  0
    1.7798    1.0799    0.0000 N   0  0  0  0  0  0  0  0  0  0  0  0
    2.5645    0.8250    0.0000 C   0  0  0  0  0  0  0  0  0  0  0  0
    4.6379    1.6209    0.0000 C   0  0  0  0  0  0  0  0  0  0  0  0
    4.3830    0.8363    0.0000 O   0  0  0  0  0  0  0  0  0  0  0  0
    5.4449    1.7925    0.0000 O   0  0  0  0  0  0  0  0  0  0  0  0
    5.9969    1.1794    0.0000 C   0  0  0  0  0  0  0  0  0  0  0  0
    6.8039    1.3509    0.0000 C   0  0  0  0  0  0  0  0  0  0  0  0
    5.7420    0.3947    0.0000 C   0  0  0  0  0  0  0  0  0  0  0  0
    5.1478    3.1902    0.0000 C   0  0  0  0  0  0  0  0  0  0  0  0
  1  2  1  0  0  0  0
  2  3  1  0  0  0  0
  3  4  2  0  0  0  0
  3  5  1  0  0  0  0
  5  6  2  0  0  0  0
  6  7  1  0  0  0  0
  6  8  1  0  0  0  0
  8  9  1  0  0  0  0
  9 10  2  0  0  0  0
 10 11  1  0  0  0  0
  5 11  1  0  0  0  0
 11 12  1  6  0  0  0
 12 13  4  0  0  0  0
 13 14  4  0  0  0  0
 14 15  4  0  0  0  0
 15 16  4  0  0  0  0
 16 17  4  0  0  0  0
 17 18  4  0  0  0  0
 18 19  4  0  0  0  0
 19 20  4  0  0  0  0
 12 20  4  0  0  0  0
 16 20  4  0  0  0  0
 10 21  1  0  0  0  0
 21 22  2  0  0  0  0
 21 23  1  0  0  0  0
 23 24  1  0  0  0  0
 24 25  1  0  0  0  0
 24 26  1  0  0  0  0
  9 27  1  0  0  0  0
M  END

> <ChembankId>
1684

> <SMILES>
COC(=O)C1=C(C)NC(=C([C@@H]1c2cccc3nonc23)C(=O)OC(C)C)C

> <InChI>
1/C19H21N3O5/c1-9(2)26-19(24)15-11(4)20-10(3)14(18(23)25-5)16(15)12-7-6-8-13-17(12)22-27-21-13/h6-9,16,20H,1-5H3

$$$$
1702
  Marvin  11101114192D          

 34 37  0  0  1  0            999 V2000
    1.8216   -5.0612    0.0000 C   0  0  0  0  0  0  0  0  0  0  0  0
    2.5045   -4.5982    0.0000 C   0  0  0  0  0  0  0  0  0  0  0  0
    2.4450   -3.7753    0.0000 C   0  0  0  0  0  0  0  0  0  0  0  0
    1.6277   -3.6625    0.0000 O   0  0  0  0  0  0  0  0  0  0  0  0
    3.1278   -3.3123    0.0000 O   0  0  0  0  0  0  0  0  0  0  0  0
    3.0683   -2.4895    0.0000 C   0  0  1  0  0  0  0  0  0  0  0  0
    2.8390   -1.6970    0.0000 C   0  0  2  0  0  0  0  0  0  0  0  0
    2.0630   -1.4167    0.0000 C   0  0  0  0  0  0  0  0  0  0  0  0
    3.5218   -1.2340    0.0000 C   0  0  0  0  0  0  0  0  0  0  0  0
    4.1731   -1.7404    0.0000 C   0  0  1  0  0  0  0  0  0  0  0  0
    4.9853   -1.5952    0.0000 C   0  0  2  0  0  0  0  0  0  0  0  0
    5.2655   -0.8192    0.0000 C   0  0  0  0  0  0  0  0  0  0  0  0
    6.0777   -0.6740    0.0000 C   0  0  2  0  0  0  0  0  0  0  0  0
    6.3580    0.1019    0.0000 F   0  0  0  0  0  0  0  0  0  0  0  0
    6.6095   -1.3047    0.0000 C   0  0  0  0  0  0  0  0  0  0  0  0
    7.4216   -1.1595    0.0000 C   0  0  0  0  0  0  0  0  0  0  0  0
    7.9534   -1.7902    0.0000 C   0  0  0  0  0  0  0  0  0  0  0  0
    8.7655   -1.6450    0.0000 O   0  0  0  0  0  0  0  0  0  0  0  0
    7.6731   -2.5662    0.0000 C   0  0  0  0  0  0  0  0  0  0  0  0
    6.8610   -2.7114    0.0000 C   0  0  0  0  0  0  0  0  0  0  0  0
    6.3292   -2.0807    0.0000 C   0  0  1  0  0  0  0  0  0  0  0  0
    6.0489   -2.8566    0.0000 C   0  0  0  0  0  0  0  0  0  0  0  0
    5.5171   -2.2259    0.0000 C   0  0  2  0  0  0  0  0  0  0  0  0
    5.5766   -3.0487    0.0000 F   0  0  0  0  0  0  0  0  0  0  0  0
    5.2368   -3.0018    0.0000 C   0  0  2  0  0  0  0  0  0  0  0  0
    5.7686   -3.6325    0.0000 O   0  0  0  0  0  0  0  0  0  0  0  0
    4.4247   -3.1470    0.0000 C   0  0  0  0  0  0  0  0  0  0  0  0
    3.8928   -2.5163    0.0000 C   0  0  2  0  0  0  0  0  0  0  0  0
    3.5330   -3.2587    0.0000 C   0  0  0  0  0  0  0  0  0  0  0  0
    2.2561   -2.6347    0.0000 C   0  0  0  0  0  0  0  0  0  0  0  0
    1.7243   -2.0040    0.0000 O   0  0  0  0  0  0  0  0  0  0  0  0
    1.9758   -3.4106    0.0000 S   0  0  0  0  0  0  0  0  0  0  0  0
    1.1637   -3.5559    0.0000 C   0  0  0  0  0  0  0  0  0  0  0  0
    0.6319   -2.9251    0.0000 F   0  0  0  0  0  0  0  0  0  0  0  0
  1  2  1  0  0  0  0
  2  3  1  0  0  0  0
  3  4  2  0  0  0  0
  3  5  1  0  0  0  0
  6  5  1  1  0  0  0
  6  7  1  0  0  0  0
  7  8  1  6  0  0  0
  7  9  1  0  0  0  0
 10  9  1  1  0  0  0
 10 11  1  0  0  0  0
 11 12  1  6  0  0  0
 12 13  1  0  0  0  0
 13 14  1  6  0  0  0
 13 15  1  0  0  0  0
 15 16  2  0  0  0  0
 16 17  1  0  0  0  0
 17 18  2  0  0  0  0
 17 19  1  0  0  0  0
 19 20  2  0  0  0  0
 20 21  1  0  0  0  0
 15 21  1  0  0  0  0
 21 22  1  1  0  0  0
 21 23  1  0  0  0  0
 11 23  1  0  0  0  0
 23 24  1  6  0  0  0
 23 25  1  0  0  0  0
 25 26  1  6  0  0  0
 25 27  1  0  0  0  0
 27 28  1  0  0  0  0
 10 28  1  0  0  0  0
  6 28  1  0  0  0  0
 28 29  1  1  0  0  0
  6 30  1  6  0  0  0
 30 31  2  0  0  0  0
 30 32  1  0  0  0  0
 32 33  1  0  0  0  0
 33 34  1  0  0  0  0
M  END

> <ChembankId>
1702

> <SMILES>
CCC(=O)O[C@]1([C@H](C)C[C@H]2[C@@H]3C[C@H](F)C4=CC(=O)C=C[C@]4(C)[C@@]3(F)[C@H](O)C[C@@]21C)C(=O)SCF

> <InChI>
1/C25H31F3O5S/c1-5-20(31)33-25(21(32)34-12-26)13(2)8-15-16-10-18(27)17-9-14(29)6-7-22(17,3)24(16,28)19(30)11-23(15,25)4/h6-7,9,13,15-16,18-19,30H,5,8,10-12H2,1-4H3

$$$$
1707
  Marvin  11101114192D          

 37 40  0  0  1  0            999 V2000
   -1.9523   -2.3853    0.0000 C   0  0  0  0  0  0  0  0  0  0  0  0
   -1.1554   -2.1718    0.0000 C   0  0  0  0  0  0  0  0  0  0  0  0
   -1.3689   -1.3749    0.0000 C   0  0  0  0  0  0  0  0  0  0  0  0
   -0.3585   -1.9583    0.0000 O   0  0  0  0  0  0  0  0  0  0  0  0
   -0.1450   -1.1614    0.0000 N   0  0  0  0  0  0  0  0  0  0  0  0
   -0.7283   -0.5780    0.0000 C   0  0  0  0  0  0  0  0  0  0  0  0
   -0.5148    0.2189    0.0000 C   0  0  0  0  0  0  0  0  0  0  0  0
   -1.0982    0.8022    0.0000 O   0  0  0  0  0  0  0  0  0  0  0  0
    0.2821    0.4324    0.0000 N   0  0  0  0  0  0  0  0  0  0  0  0
    0.8655   -0.1510    0.0000 C   0  0  2  0  0  0  0  0  0  0  0  0
    1.6905   -0.1510    0.0000 C   0  0  1  0  0  0  0  0  0  0  0  0
    2.4049    0.2615    0.0000 S   0  0  0  0  0  0  0  0  0  0  0  0
    3.1194   -0.1510    0.0000 C   0  0  0  0  0  0  0  0  0  0  0  0
    3.1194   -0.9760    0.0000 C   0  0  0  0  0  0  0  0  0  0  0  0
    2.4049   -1.3885    0.0000 C   0  0  0  0  0  0  0  0  0  0  0  0
    1.6905   -0.9760    0.0000 N   0  0  0  0  0  0  0  0  0  0  0  0
    0.8655   -0.9760    0.0000 C   0  0  0  0  0  0  0  0  0  0  0  0
    0.2821   -1.5593    0.0000 O   0  0  0  0  0  0  0  0  0  0  0  0
    2.4049   -2.2135    0.0000 C   0  0  0  0  0  0  0  0  0  0  0  0
    1.6905   -2.6260    0.0000 O   0  0  0  0  0  0  0  0  0  0  0  0
    3.1194   -2.6260    0.0000 O   0  0  0  0  0  0  0  0  0  0  0  0
    3.8339   -1.3885    0.0000 C   0  0  0  0  0  0  0  0  0  0  0  0
    4.5483   -0.9760    0.0000 N   0  3  0  0  0  0  0  0  0  0  0  0
    4.5483   -0.1510    0.0000 C   0  0  0  0  0  0  0  0  0  0  0  0
    5.2628    0.2615    0.0000 C   0  0  0  0  0  0  0  0  0  0  0  0
    5.9773   -0.1510    0.0000 C   0  0  0  0  0  0  0  0  0  0  0  0
    5.9773   -0.9760    0.0000 C   0  0  0  0  0  0  0  0  0  0  0  0
    5.2628   -1.3885    0.0000 C   0  0  0  0  0  0  0  0  0  0  0  0
   -1.5252   -0.7916    0.0000 C   0  0  0  0  0  0  0  0  0  0  0  0
   -2.1664   -0.2724    0.0000 C   0  0  0  0  0  0  0  0  0  0  0  0
   -2.8583   -0.7217    0.0000 S   0  0  0  0  0  0  0  0  0  0  0  0
   -2.6447   -1.5186    0.0000 C   0  0  0  0  0  0  0  0  0  0  0  0
   -3.1639   -2.1597    0.0000 N   0  0  0  0  0  0  0  0  0  0  0  0
   -1.8209   -1.5618    0.0000 N   0  0  0  0  0  0  0  0  0  0  0  0
   -0.9418   -2.9687    0.0000 C   0  0  0  0  0  0  0  0  0  0  0  0
   -1.5252   -3.5521    0.0000 O   0  0  0  0  0  0  0  0  0  0  0  0
   -0.1450   -3.1822    0.0000 O   0  0  0  0  0  0  0  0  0  0  0  0
  1  2  1  0  0  0  0
  2  3  1  0  0  0  0
  2  4  1  0  0  0  0
  5  4  1  4  0  0  0
  5  6  2  0  0  0  0
  6  7  1  0  0  0  0
  7  8  2  0  0  0  0
  7  9  1  0  0  0  0
 10  9  1  6  0  0  0
 10 11  1  0  0  0  0
 11 12  1  0  0  0  0
 12 13  1  0  0  0  0
 13 14  1  0  0  0  0
 14 15  2  0  0  0  0
 15 16  1  0  0  0  0
 11 16  1  1  0  0  0
 16 17  1  0  0  0  0
 10 17  1  0  0  0  0
 17 18  2  0  0  0  0
 15 19  1  0  0  0  0
 19 20  2  0  0  0  0
 19 21  1  0  0  0  0
 14 22  1  0  0  0  0
 22 23  1  0  0  0  0
 23 24  4  0  0  0  0
 24 25  4  0  0  0  0
 25 26  4  0  0  0  0
 26 27  4  0  0  0  0
 27 28  4  0  0  0  0
 23 28  4  0  0  0  0
  6 29  1  0  0  0  0
 29 30  4  0  0  0  0
 30 31  4  0  0  0  0
 31 32  4  0  0  0  0
 32 33  1  0  0  0  0
 32 34  4  0  0  0  0
 29 34  4  0  0  0  0
  2 35  1  0  0  0  0
 35 36  2  0  0  0  0
 35 37  1  0  0  0  0
M  CHG  1  23   1
M  END

> <ChembankId>
1707

> <SMILES>
CC(C)(ON=C(C(=O)N[C@@H]1[C@H]2SCC(=C(N2C1=O)C(=O)O)C[n+]3ccccc3)c4csc(N)n4)C(=O)O

> <InChI>
1/C22H22N6O7S2/c1-22(2,20(33)34)35-26-13(12-10-37-21(23)24-12)16(29)25-14-17(30)28-15(19(31)32)11(9-36-18(14)28)8-27-6-4-3-5-7-27/h3-7,10,14,18H,8-9H2,1-2H3,(H4-,23,24,25,29,31,32,33,34)/p+1

$$$$
1722
  Marvin  11101114192D          

 28 31  0  0  1  0            999 V2000
   -0.7145   -0.4125    0.0000 C   0  0  0  0  0  0  0  0  0  0  0  0
    0.0000    0.0000    0.0000 O   0  0  0  0  0  0  0  0  0  0  0  0
    0.7145   -0.4125    0.0000 C   0  0  0  0  0  0  0  0  0  0  0  0
    1.4289    0.0000    0.0000 C   0  0  0  0  0  0  0  0  0  0  0  0
    2.1434   -0.4125    0.0000 C   0  0  0  0  0  0  0  0  0  0  0  0
    2.8579    0.0000    0.0000 N   0  0  0  0  0  0  0  0  0  0  0  0
    3.5724   -0.4125    0.0000 C   0  0  0  0  0  0  0  0  0  0  0  0
    3.5724   -1.2375    0.0000 N   0  0  0  0  0  0  0  0  0  0  0  0
    2.8579   -1.6500    0.0000 C   0  0  0  0  0  0  0  0  0  0  0  0
    2.8579   -2.4750    0.0000 N   0  0  0  0  0  0  0  0  0  0  0  0
    2.1434   -1.2375    0.0000 C   0  0  0  0  0  0  0  0  0  0  0  0
    1.4289   -1.6500    0.0000 C   0  0  0  0  0  0  0  0  0  0  0  0
    0.7145   -1.2375    0.0000 C   0  0  0  0  0  0  0  0  0  0  0  0
    0.0000   -1.6500    0.0000 O   0  0  0  0  0  0  0  0  0  0  0  0
    0.0000   -2.4750    0.0000 C   0  0  0  0  0  0  0  0  0  0  0  0
    4.2868   -0.0000    0.0000 N   0  0  0  0  0  0  0  0  0  0  0  0
    4.2868    0.8250    0.0000 C   0  0  0  0  0  0  0  0  0  0  0  0
    5.0013    1.2375    0.0000 C   0  0  0  0  0  0  0  0  0  0  0  0
    5.7158    0.8250    0.0000 N   0  0  0  0  0  0  0  0  0  0  0  0
    5.7158   -0.0000    0.0000 C   0  0  0  0  0  0  0  0  0  0  0  0
    5.0013   -0.4125    0.0000 C   0  0  0  0  0  0  0  0  0  0  0  0
    6.4302    1.2375    0.0000 C   0  0  0  0  0  0  0  0  0  0  0  0
    6.4302    2.0625    0.0000 O   0  0  0  0  0  0  0  0  0  0  0  0
    7.1447    0.8250    0.0000 C   0  0  1  0  0  0  0  0  0  0  0  0
    7.8984    1.1606    0.0000 C   0  0  0  0  0  0  0  0  0  0  0  0
    8.4504    0.5475    0.0000 C   0  0  0  0  0  0  0  0  0  0  0  0
    8.0379   -0.1670    0.0000 C   0  0  0  0  0  0  0  0  0  0  0  0
    7.2309    0.0045    0.0000 O   0  0  0  0  0  0  0  0  0  0  0  0
  1  2  1  0  0  0  0
  2  3  1  0  0  0  0
  3  4  4  0  0  0  0
  4  5  4  0  0  0  0
  5  6  4  0  0  0  0
  6  7  4  0  0  0  0
  7  8  4  0  0  0  0
  8  9  4  0  0  0  0
  9 10  1  0  0  0  0
  9 11  4  0  0  0  0
  5 11  4  0  0  0  0
 11 12  4  0  0  0  0
 12 13  4  0  0  0  0
  3 13  4  0  0  0  0
 13 14  1  0  0  0  0
 14 15  1  0  0  0  0
  7 16  1  0  0  0  0
 16 17  1  0  0  0  0
 17 18  1  0  0  0  0
 18 19  1  0  0  0  0
 19 20  1  0  0  0  0
 20 21  1  0  0  0  0
 16 21  1  0  0  0  0
 19 22  1  0  0  0  0
 22 23  2  0  0  0  0
 24 22  1  1  0  0  0
 24 25  1  0  0  0  0
 25 26  1  0  0  0  0
 26 27  1  0  0  0  0
 27 28  1  0  0  0  0
 24 28  1  0  0  0  0
M  END

> <ChembankId>
1722

> <SMILES>
COc1cc2nc(nc(N)c2cc1OC)N3CCN(CC3)C(=O)[C@H]4CCCO4

> <InChI>
1/C19H25N5O4/c1-26-15-10-12-13(11-16(15)27-2)21-19(22-17(12)20)24-7-5-23(6-8-24)18(25)14-4-3-9-28-14/h10-11,14H,3-9H2,1-2H3,(H2,20,21,22)

$$$$
1723
  Marvin  11101114192D          

 14 14  0  0  1  0            999 V2000
    3.4000    2.2150    0.0000 Cl  0  0  0  0  0  0  0  0  0  0  0  0
    2.5875    2.3582    0.0000 C   0  0  0  0  0  0  0  0  0  0  0  0
    2.0572    1.7262    0.0000 C   0  0  0  0  0  0  0  0  0  0  0  0
    1.2448    1.8695    0.0000 N   0  0  0  0  0  0  0  0  0  0  0  0
    0.7145    1.2375    0.0000 P   0  0  2  0  0  0  0  0  0  0  0  0
    0.1842    1.8695    0.0000 O   0  0  0  0  0  0  0  0  0  0  0  0
    1.4289    0.8250    0.0000 O   0  0  0  0  0  0  0  0  0  0  0  0
    1.4289    0.0000    0.0000 C   0  0  0  0  0  0  0  0  0  0  0  0
    0.7145   -0.4125    0.0000 C   0  0  0  0  0  0  0  0  0  0  0  0
    0.0000   -0.0000    0.0000 C   0  0  0  0  0  0  0  0  0  0  0  0
   -0.0000    0.8250    0.0000 N   0  0  0  0  0  0  0  0  0  0  0  0
   -0.7145    1.2375    0.0000 C   0  0  0  0  0  0  0  0  0  0  0  0
   -0.7145    2.0625    0.0000 C   0  0  0  0  0  0  0  0  0  0  0  0
   -1.4289    2.4750    0.0000 Cl  0  0  0  0  0  0  0  0  0  0  0  0
  1  2  1  0  0  0  0
  2  3  1  0  0  0  0
  3  4  1  0  0  0  0
  5  4  1  6  0  0  0
  5  6  2  0  0  0  0
  5  7  1  0  0  0  0
  7  8  1  0  0  0  0
  8  9  1  0  0  0  0
  9 10  1  0  0  0  0
 10 11  1  0  0  0  0
  5 11  1  0  0  0  0
 11 12  1  0  0  0  0
 12 13  1  0  0  0  0
 13 14  1  0  0  0  0
M  END

> <ChembankId>
1723

> <SMILES>
ClCCN[P@]1(=O)OCCCN1CCCl

> <InChI>
1/C7H15Cl2N2O2P/c8-2-4-10-14(12)11(6-3-9)5-1-7-13-14/h1-7H2,(H,10,12)

$$$$
1728
  Marvin  11101114192D          

 31 31  0  0  1  0            999 V2000
   -2.1434   -1.2375    0.0000 C   0  0  0  0  0  0  0  0  0  0  0  0
   -1.4289   -1.6500    0.0000 C   0  0  1  0  0  0  0  0  0  0  0  0
   -1.4289   -2.4750    0.0000 O   0  0  0  0  0  0  0  0  0  0  0  0
   -0.7145   -1.2375    0.0000 C   0  0  0  0  0  0  0  0  0  0  0  0
    0.0000   -1.6500    0.0000 O   0  0  0  0  0  0  0  0  0  0  0  0
   -0.7145   -0.4125    0.0000 N   0  0  0  0  0  0  0  0  0  0  0  0
    0.0000    0.0000    0.0000 C   0  0  0  0  0  0  0  0  0  0  0  0
    0.0000    0.8250    0.0000 C   0  0  0  0  0  0  0  0  0  0  0  0
   -0.7145    1.2375    0.0000 I   0  0  0  0  0  0  0  0  0  0  0  0
    0.7145    1.2375    0.0000 C   0  0  0  0  0  0  0  0  0  0  0  0
    0.7145    2.0625    0.0000 C   0  0  0  0  0  0  0  0  0  0  0  0
    1.4289    2.4750    0.0000 O   0  0  0  0  0  0  0  0  0  0  0  0
    0.0000    2.4750    0.0000 N   0  0  0  0  0  0  0  0  0  0  0  0
    0.0000    3.3000    0.0000 C   0  0  0  0  0  0  0  0  0  0  0  0
   -0.7145    3.7125    0.0000 C   0  0  0  0  0  0  0  0  0  0  0  0
   -0.7145    4.5375    0.0000 O   0  0  0  0  0  0  0  0  0  0  0  0
    0.7145    3.7125    0.0000 C   0  0  0  0  0  0  0  0  0  0  0  0
    1.4289    3.3000    0.0000 O   0  0  0  0  0  0  0  0  0  0  0  0
    1.4289    0.8250    0.0000 C   0  0  0  0  0  0  0  0  0  0  0  0
    2.1434    1.2375    0.0000 I   0  0  0  0  0  0  0  0  0  0  0  0
    1.4289    0.0000    0.0000 C   0  0  0  0  0  0  0  0  0  0  0  0
    2.1434   -0.4125    0.0000 C   0  0  0  0  0  0  0  0  0  0  0  0
    2.8579    0.0000    0.0000 O   0  0  0  0  0  0  0  0  0  0  0  0
    2.1434   -1.2375    0.0000 N   0  0  0  0  0  0  0  0  0  0  0  0
    2.8579   -1.6500    0.0000 C   0  0  0  0  0  0  0  0  0  0  0  0
    2.8579   -2.4750    0.0000 C   0  0  0  0  0  0  0  0  0  0  0  0
    3.5724   -2.8875    0.0000 O   0  0  0  0  0  0  0  0  0  0  0  0
    3.5724   -1.2375    0.0000 C   0  0  0  0  0  0  0  0  0  0  0  0
    4.2868   -1.6500    0.0000 O   0  0  0  0  0  0  0  0  0  0  0  0
    0.7145   -0.4125    0.0000 C   0  0  0  0  0  0  0  0  0  0  0  0
    0.7145   -1.2375    0.0000 I   0  0  0  0  0  0  0  0  0  0  0  0
  1  2  1  0  0  0  0
  2  3  1  6  0  0  0
  2  4  1  0  0  0  0
  4  5  2  0  0  0  0
  4  6  1  0  0  0  0
  6  7  1  0  0  0  0
  7  8  4  0  0  0  0
  8  9  1  0  0  0  0
  8 10  4  0  0  0  0
 10 11  1  0  0  0  0
 11 12  2  0  0  0  0
 11 13  1  0  0  0  0
 13 14  1  0  0  0  0
 14 15  1  0  0  0  0
 15 16  1  0  0  0  0
 14 17  1  0  0  0  0
 17 18  1  0  0  0  0
 10 19  4  0  0  0  0
 19 20  1  0  0  0  0
 19 21  4  0  0  0  0
 21 22  1  0  0  0  0
 22 23  2  0  0  0  0
 22 24  1  0  0  0  0
 24 25  1  0  0  0  0
 25 26  1  0  0  0  0
 26 27  1  0  0  0  0
 25 28  1  0  0  0  0
 28 29  1  0  0  0  0
 21 30  4  0  0  0  0
  7 30  4  0  0  0  0
 30 31  1  0  0  0  0
M  END

> <ChembankId>
1728

> <SMILES>
C[C@@H](O)C(=O)Nc1c(I)c(C(=O)NC(CO)CO)c(I)c(C(=O)NC(CO)CO)c1I

> <InChI>
1/C17H22I3N3O8/c1-6(28)15(29)23-14-12(19)9(16(30)21-7(2-24)3-25)11(18)10(13(14)20)17(31)22-8(4-26)5-27/h6-8,24-28H,2-5H2,1H3,(H,21,30)(H,22,31)(H,23,29)

$$$$
1731
  Marvin  11101114192D          

 24 26  0  0  1  0            999 V2000
    2.7069    0.5635    0.0000 C   0  0  0  0  0  0  0  0  0  0  0  0
    1.9924    0.9760    0.0000 C   0  0  0  0  0  0  0  0  0  0  0  0
    1.2780    0.5635    0.0000 C   0  0  0  0  0  0  0  0  0  0  0  0
    0.5635    0.9760    0.0000 N   0  0  0  0  0  0  0  0  0  0  0  0
    0.5635    1.8010    0.0000 C   0  0  2  0  0  0  0  0  0  0  0  0
    1.2780    2.2135    0.0000 S   0  0  0  0  0  0  0  0  0  0  0  0
    1.9924    1.8010    0.0000 C   0  0  0  0  0  0  0  0  0  0  0  0
   -0.2615    1.8010    0.0000 C   0  0  1  0  0  0  0  0  0  0  0  0
   -0.8449    2.3843    0.0000 N   0  0  0  0  0  0  0  0  0  0  0  0
   -0.6314    3.1812    0.0000 C   0  0  0  0  0  0  0  0  0  0  0  0
    0.1655    3.3948    0.0000 O   0  0  0  0  0  0  0  0  0  0  0  0
   -1.2147    3.7646    0.0000 C   0  0  1  0  0  0  0  0  0  0  0  0
   -2.0116    3.5511    0.0000 N   0  0  0  0  0  0  0  0  0  0  0  0
   -1.0012    4.5615    0.0000 C   0  0  0  0  0  0  0  0  0  0  0  0
   -1.5846    5.1449    0.0000 C   0  0  0  0  0  0  0  0  0  0  0  0
   -1.3710    5.9417    0.0000 C   0  0  0  0  0  0  0  0  0  0  0  0
   -0.5741    6.1553    0.0000 C   0  0  0  0  0  0  0  0  0  0  0  0
    0.0092    5.5719    0.0000 C   0  0  0  0  0  0  0  0  0  0  0  0
   -0.2043    4.7750    0.0000 C   0  0  0  0  0  0  0  0  0  0  0  0
   -0.2615    0.9760    0.0000 C   0  0  0  0  0  0  0  0  0  0  0  0
   -0.8449    0.3926    0.0000 O   0  0  0  0  0  0  0  0  0  0  0  0
    1.2780   -0.2615    0.0000 C   0  0  0  0  0  0  0  0  0  0  0  0
    0.5635   -0.6740    0.0000 O   0  0  0  0  0  0  0  0  0  0  0  0
    1.9924   -0.6740    0.0000 O   0  0  0  0  0  0  0  0  0  0  0  0
  1  2  1  0  0  0  0
  2  3  2  0  0  0  0
  3  4  1  0  0  0  0
  5  4  1  1  0  0  0
  5  6  1  0  0  0  0
  6  7  1  0  0  0  0
  2  7  1  0  0  0  0
  5  8  1  0  0  0  0
  8  9  1  6  0  0  0
  9 10  1  0  0  0  0
 10 11  2  0  0  0  0
 10 12  1  0  0  0  0
 12 13  1  1  0  0  0
 12 14  1  0  0  0  0
 14 15  4  0  0  0  0
 15 16  4  0  0  0  0
 16 17  4  0  0  0  0
 17 18  4  0  0  0  0
 18 19  4  0  0  0  0
 14 19  4  0  0  0  0
  8 20  1  0  0  0  0
  4 20  1  0  0  0  0
 20 21  2  0  0  0  0
  3 22  1  0  0  0  0
 22 23  2  0  0  0  0
 22 24  1  0  0  0  0
M  END

> <ChembankId>
1731

> <SMILES>
CC1=C(N2[C@H](SC1)[C@@H](NC(=O)[C@@H](N)c3ccccc3)C2=O)C(=O)O

> <InChI>
1/C16H17N3O4S/c1-8-7-24-15-11(14(21)19(15)12(8)16(22)23)18-13(20)10(17)9-5-3-2-4-6-9/h2-6,10-11,15H,7,17H2,1H3,(H,18,20)(H,22,23)

$$$$
1732
  Marvin  11101114192D          

 22 23  0  0  1  0            999 V2000
    0.7145   -3.7125    0.0000 C   0  0  0  0  0  0  0  0  0  0  0  0
    1.4289   -4.1250    0.0000 C   0  0  0  0  0  0  0  0  0  0  0  0
    1.4289   -4.9500    0.0000 C   0  0  0  0  0  0  0  0  0  0  0  0
    2.1434   -3.7125    0.0000 N   0  0  0  0  0  0  0  0  0  0  0  0
    2.8579   -4.1250    0.0000 C   0  0  0  0  0  0  0  0  0  0  0  0
    3.5724   -3.7125    0.0000 C   0  0  2  0  0  0  0  0  0  0  0  0
    3.5724   -2.8875    0.0000 O   0  0  0  0  0  0  0  0  0  0  0  0
    4.2868   -4.1250    0.0000 C   0  0  0  0  0  0  0  0  0  0  0  0
    5.0013   -3.7125    0.0000 O   0  0  0  0  0  0  0  0  0  0  0  0
    5.7158   -4.1250    0.0000 C   0  0  0  0  0  0  0  0  0  0  0  0
    6.4302   -3.7125    0.0000 C   0  0  0  0  0  0  0  0  0  0  0  0
    7.1447   -4.1250    0.0000 C   0  0  0  0  0  0  0  0  0  0  0  0
    7.1447   -4.9500    0.0000 C   0  0  0  0  0  0  0  0  0  0  0  0
    7.8592   -5.3625    0.0000 C   0  0  0  0  0  0  0  0  0  0  0  0
    8.5737   -4.9500    0.0000 C   0  0  0  0  0  0  0  0  0  0  0  0
    9.2881   -5.3625    0.0000 O   0  0  0  0  0  0  0  0  0  0  0  0
   10.0026   -4.9500    0.0000 C   0  0  0  0  0  0  0  0  0  0  0  0
   10.7171   -5.3625    0.0000 C   0  0  0  0  0  0  0  0  0  0  0  0
   11.5421   -5.3625    0.0000 C   0  0  0  0  0  0  0  0  0  0  0  0
   11.1296   -6.0770    0.0000 C   0  0  0  0  0  0  0  0  0  0  0  0
    6.4302   -5.3625    0.0000 C   0  0  0  0  0  0  0  0  0  0  0  0
    5.7158   -4.9500    0.0000 C   0  0  0  0  0  0  0  0  0  0  0  0
  1  2  1  0  0  0  0
  2  3  1  0  0  0  0
  2  4  1  0  0  0  0
  4  5  1  0  0  0  0
  5  6  1  0  0  0  0
  6  7  1  6  0  0  0
  6  8  1  0  0  0  0
  8  9  1  0  0  0  0
  9 10  1  0  0  0  0
 10 11  4  0  0  0  0
 11 12  4  0  0  0  0
 12 13  4  0  0  0  0
 13 14  1  0  0  0  0
 14 15  1  0  0  0  0
 15 16  1  0  0  0  0
 16 17  1  0  0  0  0
 17 18  1  0  0  0  0
 18 19  1  0  0  0  0
 19 20  1  0  0  0  0
 18 20  1  0  0  0  0
 13 21  4  0  0  0  0
 21 22  4  0  0  0  0
 10 22  4  0  0  0  0
M  END

> <ChembankId>
1732

> <SMILES>
CC(C)NC[C@H](O)COc1ccc(CCOCC2CC2)cc1

> <InChI>
1/C18H29NO3/c1-14(2)19-11-17(20)13-22-18-7-5-15(6-8-18)9-10-21-12-16-3-4-16/h5-8,14,16-17,19-20H,3-4,9-13H2,1-2H3

$$$$
1742
  Marvin  11101114192D          

 24 26  0  0  1  0            999 V2000
   -0.8846    1.5991    0.0000 N   0  0  0  0  0  0  0  0  0  0  0  0
   -0.0877    1.8126    0.0000 C   0  0  1  0  0  0  0  0  0  0  0  0
    0.4956    1.2293    0.0000 C   0  0  0  0  0  0  0  0  0  0  0  0
    1.2925    1.4428    0.0000 O   0  0  0  0  0  0  0  0  0  0  0  0
    0.2821    0.4324    0.0000 N   0  0  0  0  0  0  0  0  0  0  0  0
    0.8655   -0.1510    0.0000 C   0  0  1  0  0  0  0  0  0  0  0  0
    1.6905   -0.1510    0.0000 C   0  0  1  0  0  0  0  0  0  0  0  0
    2.4049    0.2615    0.0000 C   0  0  0  0  0  0  0  0  0  0  0  0
    3.1194   -0.1510    0.0000 C   0  0  0  0  0  0  0  0  0  0  0  0
    3.1194   -0.9760    0.0000 C   0  0  0  0  0  0  0  0  0  0  0  0
    2.4049   -1.3885    0.0000 C   0  0  0  0  0  0  0  0  0  0  0  0
    1.6905   -0.9760    0.0000 N   0  0  0  0  0  0  0  0  0  0  0  0
    0.8655   -0.9760    0.0000 C   0  0  0  0  0  0  0  0  0  0  0  0
    0.2821   -1.5593    0.0000 O   0  0  0  0  0  0  0  0  0  0  0  0
    2.4049   -2.2135    0.0000 C   0  0  0  0  0  0  0  0  0  0  0  0
    3.1194   -2.6260    0.0000 O   0  0  0  0  0  0  0  0  0  0  0  0
    1.6905   -2.6260    0.0000 O   0  0  0  0  0  0  0  0  0  0  0  0
    3.8339   -1.3885    0.0000 Cl  0  0  0  0  0  0  0  0  0  0  0  0
    0.1258    2.6095    0.0000 C   0  0  0  0  0  0  0  0  0  0  0  0
   -0.4576    3.1929    0.0000 C   0  0  0  0  0  0  0  0  0  0  0  0
   -0.2441    3.9898    0.0000 C   0  0  0  0  0  0  0  0  0  0  0  0
    0.5528    4.2033    0.0000 C   0  0  0  0  0  0  0  0  0  0  0  0
    1.1362    3.6199    0.0000 C   0  0  0  0  0  0  0  0  0  0  0  0
    0.9227    2.8230    0.0000 C   0  0  0  0  0  0  0  0  0  0  0  0
  2  1  1  6  0  0  0
  2  3  1  0  0  0  0
  3  4  2  0  0  0  0
  3  5  1  0  0  0  0
  6  5  1  1  0  0  0
  6  7  1  0  0  0  0
  7  8  1  0  0  0  0
  8  9  1  0  0  0  0
  9 10  1  0  0  0  0
 10 11  2  0  0  0  0
 11 12  1  0  0  0  0
  7 12  1  1  0  0  0
 12 13  1  0  0  0  0
  6 13  1  0  0  0  0
 13 14  2  0  0  0  0
 11 15  1  0  0  0  0
 15 16  2  0  0  0  0
 15 17  1  0  0  0  0
 10 18  1  0  0  0  0
  2 19  1  0  0  0  0
 19 20  4  0  0  0  0
 20 21  4  0  0  0  0
 21 22  4  0  0  0  0
 22 23  4  0  0  0  0
 23 24  4  0  0  0  0
 19 24  4  0  0  0  0
M  END

> <ChembankId>
1742

> <SMILES>
N[C@@H](C(=O)N[C@H]1[C@H]2CCC(=C(N2C1=O)C(=O)O)Cl)c3ccccc3

> <InChI>
1/C16H16ClN3O4/c17-9-6-7-10-12(15(22)20(10)13(9)16(23)24)19-14(21)11(18)8-4-2-1-3-5-8/h1-5,10-12H,6-7,18H2,(H,19,21)(H,23,24)

$$$$
1752
  Marvin  11101114192D          

 27 28  0  0  1  0            999 V2000
    0.7324    0.5901    0.0000 C   0  0  0  0  0  0  0  0  0  0  0  0
    0.7324   -0.2349    0.0000 C   0  0  1  0  0  0  0  0  0  0  0  0
    1.4469   -0.6474    0.0000 O   0  0  0  0  0  0  0  0  0  0  0  0
    0.0179   -0.6474    0.0000 C   0  0  2  0  0  0  0  0  0  0  0  0
    0.0179   -1.4724    0.0000 C   0  0  2  0  0  0  0  0  0  0  0  0
    0.6854   -1.9573    0.0000 N   0  0  0  0  0  0  0  0  0  0  0  0
    0.4304   -2.7419    0.0000 C   0  0  0  0  0  0  0  0  0  0  0  0
   -0.3946   -2.7419    0.0000 C   0  0  2  0  0  0  0  0  0  0  0  0
   -0.8795   -3.4094    0.0000 S   0  0  0  0  0  0  0  0  0  0  0  0
   -0.5439   -4.1631    0.0000 C   0  0  2  0  0  0  0  0  0  0  0  0
    0.2630   -4.3346    0.0000 C   0  0  0  0  0  0  0  0  0  0  0  0
    0.3493   -5.1551    0.0000 N   0  0  0  0  0  0  0  0  0  0  0  0
   -0.4044   -5.4906    0.0000 C   0  0  2  0  0  0  0  0  0  0  0  0
   -0.9564   -4.8775    0.0000 C   0  0  0  0  0  0  0  0  0  0  0  0
   -0.5759   -6.2976    0.0000 C   0  0  0  0  0  0  0  0  0  0  0  0
    0.0372   -6.8496    0.0000 O   0  0  0  0  0  0  0  0  0  0  0  0
   -1.3605   -6.5525    0.0000 N   0  0  0  0  0  0  0  0  0  0  0  0
   -1.5321   -7.3595    0.0000 C   0  0  0  0  0  0  0  0  0  0  0  0
   -1.9736   -6.0005    0.0000 C   0  0  0  0  0  0  0  0  0  0  0  0
   -0.6495   -1.9573    0.0000 C   0  0  2  0  0  0  0  0  0  0  0  0
   -1.4341   -1.7024    0.0000 C   0  0  0  0  0  0  0  0  0  0  0  0
    0.9154   -3.4094    0.0000 C   0  0  0  0  0  0  0  0  0  0  0  0
    0.5798   -4.1631    0.0000 O   0  0  0  0  0  0  0  0  0  0  0  0
    1.7358   -3.3231    0.0000 O   0  0  0  0  0  0  0  0  0  0  0  0
   -0.6965   -0.2349    0.0000 C   0  0  0  0  0  0  0  0  0  0  0  0
   -1.4110   -0.6474    0.0000 O   0  0  0  0  0  0  0  0  0  0  0  0
   -0.6965    0.5901    0.0000 O   0  0  0  0  0  0  0  0  0  0  0  0
  1  2  1  0  0  0  0
  2  3  1  1  0  0  0
  2  4  1  0  0  0  0
  5  4  1  6  0  0  0
  5  6  1  0  0  0  0
  6  7  2  0  0  0  0
  7  8  1  0  0  0  0
  8  9  1  6  0  0  0
 10  9  1  6  0  0  0
 10 11  1  0  0  0  0
 11 12  1  0  0  0  0
 12 13  1  0  0  0  0
 13 14  1  0  0  0  0
 10 14  1  0  0  0  0
 13 15  1  1  0  0  0
 15 16  2  0  0  0  0
 15 17  1  0  0  0  0
 17 18  1  0  0  0  0
 17 19  1  0  0  0  0
  8 20  1  0  0  0  0
  5 20  1  0  0  0  0
 20 21  1  6  0  0  0
  7 22  1  0  0  0  0
 22 23  2  0  0  0  0
 22 24  1  0  0  0  0
  4 25  1  6  0  0  0
 25 26  2  0  0  0  0
 25 27  1  0  0  0  0
M  END

> <ChembankId>
1752

> <SMILES>
C[C@@H](O)[C@H]([C@@H]1N=C([C@H](S[C@@H]2CN[C@H](C2)C(=O)N(C)C)[C@@H]1C)C(=O)O)C(=O)O

> <InChI>
1/C17H27N3O6S/c1-7-12(11(8(2)21)16(23)24)19-13(17(25)26)14(7)27-9-5-10(18-6-9)15(22)20(3)4/h7-12,14,18,21H,5-6H2,1-4H3,(H,23,24)(H,25,26)

$$$$
1769
  Marvin  11101114192D          

 31 34  0  0  1  0            999 V2000
    0.0000    0.0000    0.0000 C   0  0  0  0  0  0  0  0  0  0  0  0
    0.7145   -0.4125    0.0000 C   0  0  0  0  0  0  0  0  0  0  0  0
    1.4289    0.0000    0.0000 C   0  0  0  0  0  0  0  0  0  0  0  0
    1.4289    0.8250    0.0000 C   0  0  0  0  0  0  0  0  0  0  0  0
    2.1434   -0.4125    0.0000 C   0  0  0  0  0  0  0  0  0  0  0  0
    2.8579    0.0000    0.0000 O   0  0  0  0  0  0  0  0  0  0  0  0
    3.5724   -0.4125    0.0000 C   0  0  2  0  0  0  0  0  0  0  0  0
    3.8545    0.3627    0.0000 C   0  0  0  0  0  0  0  0  0  0  0  0
    4.3848   -0.5558    0.0000 C   0  0  0  0  0  0  0  0  0  0  0  0
    4.9151    0.0762    0.0000 O   0  0  0  0  0  0  0  0  0  0  0  0
    5.7276   -0.0670    0.0000 C   0  0  0  0  0  0  0  0  0  0  0  0
    6.2579    0.5650    0.0000 C   0  0  0  0  0  0  0  0  0  0  0  0
    7.0704    0.4217    0.0000 C   0  0  0  0  0  0  0  0  0  0  0  0
    7.3525   -0.3536    0.0000 C   0  0  0  0  0  0  0  0  0  0  0  0
    8.1650   -0.4968    0.0000 C   0  0  0  0  0  0  0  0  0  0  0  0
    8.4472   -1.2721    0.0000 C   0  0  1  0  0  0  0  0  0  0  0  0
    9.2402   -1.4995    0.0000 S   0  0  0  0  0  0  0  0  0  0  0  0
    9.2690   -2.3240    0.0000 C   0  0  0  0  0  0  0  0  0  0  0  0
    9.9529   -2.7853    0.0000 O   0  0  0  0  0  0  0  0  0  0  0  0
    8.4937   -2.6061    0.0000 N   0  0  0  0  0  0  0  0  0  0  0  0
    7.9858   -1.9560    0.0000 C   0  0  0  0  0  0  0  0  0  0  0  0
    7.1613   -1.9848    0.0000 O   0  0  0  0  0  0  0  0  0  0  0  0
    6.8222   -0.9855    0.0000 C   0  0  0  0  0  0  0  0  0  0  0  0
    6.0098   -0.8423    0.0000 C   0  0  0  0  0  0  0  0  0  0  0  0
    3.5724   -1.2375    0.0000 C   0  0  0  0  0  0  0  0  0  0  0  0
    2.8579   -1.6500    0.0000 C   0  0  0  0  0  0  0  0  0  0  0  0
    2.1434   -1.2375    0.0000 C   0  0  0  0  0  0  0  0  0  0  0  0
    1.4289   -1.6500    0.0000 C   0  0  0  0  0  0  0  0  0  0  0  0
    1.4289   -2.4750    0.0000 C   0  0  0  0  0  0  0  0  0  0  0  0
    0.7145   -1.2375    0.0000 C   0  0  0  0  0  0  0  0  0  0  0  0
    0.0000   -1.6500    0.0000 O   0  0  0  0  0  0  0  0  0  0  0  0
  1  2  1  0  0  0  0
  2  3  4  0  0  0  0
  3  4  1  0  0  0  0
  3  5  4  0  0  0  0
  5  6  1  0  0  0  0
  6  7  1  0  0  0  0
  7  8  1  1  0  0  0
  7  9  1  6  0  0  0
  9 10  1  0  0  0  0
 10 11  1  0  0  0  0
 11 12  4  0  0  0  0
 12 13  4  0  0  0  0
 13 14  4  0  0  0  0
 14 15  1  0  0  0  0
 16 15  1  1  0  0  0
 16 17  1  0  0  0  0
 17 18  1  0  0  0  0
 18 19  2  0  0  0  0
 18 20  1  0  0  0  0
 20 21  1  0  0  0  0
 16 21  1  0  0  0  0
 21 22  2  0  0  0  0
 14 23  4  0  0  0  0
 23 24  4  0  0  0  0
 11 24  4  0  0  0  0
  7 25  1  0  0  0  0
 25 26  1  0  0  0  0
 26 27  1  0  0  0  0
  5 27  4  0  0  0  0
 27 28  4  0  0  0  0
 28 29  1  0  0  0  0
 28 30  4  0  0  0  0
  2 30  4  0  0  0  0
 30 31  1  0  0  0  0
M  END

> <ChembankId>
1769

> <SMILES>
Cc1c(C)c2O[C@](C)(COc3ccc(C[C@H]4SC(=O)NC4=O)cc3)CCc2c(C)c1O

> <InChI>
1/C24H27NO5S/c1-13-14(2)21-18(15(3)20(13)26)9-10-24(4,30-21)12-29-17-7-5-16(6-8-17)11-19-22(27)25-23(28)31-19/h5-8,19,26H,9-12H2,1-4H3,(H,25,27,28)

$$$$
1772
  Marvin  11101114192D          

 34 34  0  0  1  0            999 V2000
   -2.1434   -0.4125    0.0000 C   0  0  0  0  0  0  0  0  0  0  0  0
   -1.4289    0.0000    0.0000 C   0  0  0  0  0  0  0  0  0  0  0  0
   -1.4289    0.8250    0.0000 O   0  0  0  0  0  0  0  0  0  0  0  0
   -0.7145   -0.4125    0.0000 N   0  0  0  0  0  0  0  0  0  0  0  0
   -0.7145   -1.2375    0.0000 C   0  0  0  0  0  0  0  0  0  0  0  0
   -1.4289   -1.6500    0.0000 C   0  0  1  0  0  0  0  0  0  0  0  0
   -2.1434   -1.2375    0.0000 O   0  0  0  0  0  0  0  0  0  0  0  0
   -1.4289   -2.4750    0.0000 C   0  0  0  0  0  0  0  0  0  0  0  0
   -2.1434   -2.8875    0.0000 O   0  0  0  0  0  0  0  0  0  0  0  0
    0.0000    0.0000    0.0000 C   0  0  0  0  0  0  0  0  0  0  0  0
    0.0000    0.8250    0.0000 C   0  0  0  0  0  0  0  0  0  0  0  0
   -0.7145    1.2375    0.0000 I   0  0  0  0  0  0  0  0  0  0  0  0
    0.7145    1.2375    0.0000 C   0  0  0  0  0  0  0  0  0  0  0  0
    0.7145    2.0625    0.0000 C   0  0  0  0  0  0  0  0  0  0  0  0
    1.4289    2.4750    0.0000 O   0  0  0  0  0  0  0  0  0  0  0  0
    0.0000    2.4750    0.0000 N   0  0  0  0  0  0  0  0  0  0  0  0
    0.0000    3.3000    0.0000 C   0  0  0  0  0  0  0  0  0  0  0  0
   -0.7145    3.7125    0.0000 C   0  0  1  0  0  0  0  0  0  0  0  0
   -1.4289    3.3000    0.0000 O   0  0  0  0  0  0  0  0  0  0  0  0
   -0.7145    4.5375    0.0000 C   0  0  0  0  0  0  0  0  0  0  0  0
   -1.4289    4.9500    0.0000 O   0  0  0  0  0  0  0  0  0  0  0  0
    1.4289    0.8250    0.0000 C   0  0  0  0  0  0  0  0  0  0  0  0
    2.1434    1.2375    0.0000 I   0  0  0  0  0  0  0  0  0  0  0  0
    1.4289    0.0000    0.0000 C   0  0  0  0  0  0  0  0  0  0  0  0
    2.1434   -0.4125    0.0000 C   0  0  0  0  0  0  0  0  0  0  0  0
    2.1434   -1.2375    0.0000 O   0  0  0  0  0  0  0  0  0  0  0  0
    2.8579    0.0000    0.0000 N   0  0  0  0  0  0  0  0  0  0  0  0
    3.5724   -0.4125    0.0000 C   0  0  0  0  0  0  0  0  0  0  0  0
    4.2868    0.0000    0.0000 C   0  0  1  0  0  0  0  0  0  0  0  0
    4.2868    0.8250    0.0000 O   0  0  0  0  0  0  0  0  0  0  0  0
    5.0013   -0.4125    0.0000 C   0  0  0  0  0  0  0  0  0  0  0  0
    5.0013   -1.2375    0.0000 O   0  0  0  0  0  0  0  0  0  0  0  0
    0.7145   -0.4125    0.0000 C   0  0  0  0  0  0  0  0  0  0  0  0
    0.7145   -1.2375    0.0000 I   0  0  0  0  0  0  0  0  0  0  0  0
  1  2  1  0  0  0  0
  2  3  2  0  0  0  0
  2  4  1  0  0  0  0
  4  5  1  0  0  0  0
  5  6  1  0  0  0  0
  6  7  1  6  0  0  0
  6  8  1  0  0  0  0
  8  9  1  0  0  0  0
  4 10  1  0  0  0  0
 10 11  4  0  0  0  0
 11 12  1  0  0  0  0
 11 13  4  0  0  0  0
 13 14  1  0  0  0  0
 14 15  2  0  0  0  0
 14 16  1  0  0  0  0
 16 17  1  0  0  0  0
 17 18  1  0  0  0  0
 18 19  1  1  0  0  0
 18 20  1  0  0  0  0
 20 21  1  0  0  0  0
 13 22  4  0  0  0  0
 22 23  1  0  0  0  0
 22 24  4  0  0  0  0
 24 25  1  0  0  0  0
 25 26  2  0  0  0  0
 25 27  1  0  0  0  0
 27 28  1  0  0  0  0
 28 29  1  0  0  0  0
 29 30  1  1  0  0  0
 29 31  1  0  0  0  0
 31 32  1  0  0  0  0
 24 33  4  0  0  0  0
 10 33  4  0  0  0  0
 33 34  1  0  0  0  0
M  END

> <ChembankId>
1772

> <SMILES>
CC(=O)N(C[C@@H](O)CO)c1c(I)c(C(=O)NC[C@@H](O)CO)c(I)c(C(=O)NC[C@@H](O)CO)c1I

> <InChI>
1/C19H26I3N3O9/c1-8(29)25(4-11(32)7-28)17-15(21)12(18(33)23-2-9(30)5-26)14(20)13(16(17)22)19(34)24-3-10(31)6-27/h9-11,26-28,30-32H,2-7H2,1H3,(H,23,33)(H,24,34)

$$$$
1774
  Marvin  11101114192D          

 33 33  0  0  1  0            999 V2000
   -2.1434    1.2375    0.0000 O   0  0  0  0  0  0  0  0  0  0  0  0
   -1.4289    0.8250    0.0000 C   0  0  0  0  0  0  0  0  0  0  0  0
   -1.4289    0.0000    0.0000 C   0  0  0  0  0  0  0  0  0  0  0  0
   -0.7145   -0.4125    0.0000 N   0  0  0  0  0  0  0  0  0  0  0  0
   -0.7145   -1.2375    0.0000 C   0  0  0  0  0  0  0  0  0  0  0  0
   -1.4289   -1.6500    0.0000 O   0  0  0  0  0  0  0  0  0  0  0  0
   -0.0000   -1.6500    0.0000 C   0  0  0  0  0  0  0  0  0  0  0  0
   -0.0000   -2.4750    0.0000 O   0  0  0  0  0  0  0  0  0  0  0  0
    0.0000    0.0000    0.0000 C   0  0  0  0  0  0  0  0  0  0  0  0
    0.0000    0.8250    0.0000 C   0  0  0  0  0  0  0  0  0  0  0  0
   -0.7145    1.2375    0.0000 I   0  0  0  0  0  0  0  0  0  0  0  0
    0.7145    1.2375    0.0000 C   0  0  0  0  0  0  0  0  0  0  0  0
    0.7145    2.0625    0.0000 C   0  0  0  0  0  0  0  0  0  0  0  0
    1.4289    2.4750    0.0000 O   0  0  0  0  0  0  0  0  0  0  0  0
    0.0000    2.4750    0.0000 N   0  0  0  0  0  0  0  0  0  0  0  0
    0.0000    3.3000    0.0000 C   0  0  0  0  0  0  0  0  0  0  0  0
   -0.7145    3.7125    0.0000 C   0  0  1  0  0  0  0  0  0  0  0  0
   -1.4289    3.3000    0.0000 O   0  0  0  0  0  0  0  0  0  0  0  0
   -0.7145    4.5375    0.0000 C   0  0  0  0  0  0  0  0  0  0  0  0
   -1.4289    4.9500    0.0000 O   0  0  0  0  0  0  0  0  0  0  0  0
    1.4289    0.8250    0.0000 C   0  0  0  0  0  0  0  0  0  0  0  0
    2.1434    1.2375    0.0000 I   0  0  0  0  0  0  0  0  0  0  0  0
    1.4289    0.0000    0.0000 C   0  0  0  0  0  0  0  0  0  0  0  0
    2.1434   -0.4125    0.0000 C   0  0  0  0  0  0  0  0  0  0  0  0
    2.1434   -1.2375    0.0000 O   0  0  0  0  0  0  0  0  0  0  0  0
    2.8579    0.0000    0.0000 N   0  0  0  0  0  0  0  0  0  0  0  0
    3.5724   -0.4125    0.0000 C   0  0  0  0  0  0  0  0  0  0  0  0
    4.2868    0.0000    0.0000 C   0  0  1  0  0  0  0  0  0  0  0  0
    4.2868    0.8250    0.0000 O   0  0  0  0  0  0  0  0  0  0  0  0
    5.0013   -0.4125    0.0000 C   0  0  0  0  0  0  0  0  0  0  0  0
    5.7158    0.0000    0.0000 O   0  0  0  0  0  0  0  0  0  0  0  0
    0.7145   -0.4125    0.0000 C   0  0  0  0  0  0  0  0  0  0  0  0
    0.7145   -1.2375    0.0000 I   0  0  0  0  0  0  0  0  0  0  0  0
  1  2  1  0  0  0  0
  2  3  1  0  0  0  0
  3  4  1  0  0  0  0
  4  5  1  0  0  0  0
  5  6  2  0  0  0  0
  5  7  1  0  0  0  0
  7  8  1  0  0  0  0
  4  9  1  0  0  0  0
  9 10  4  0  0  0  0
 10 11  1  0  0  0  0
 10 12  4  0  0  0  0
 12 13  1  0  0  0  0
 13 14  2  0  0  0  0
 13 15  1  0  0  0  0
 15 16  1  0  0  0  0
 16 17  1  0  0  0  0
 17 18  1  1  0  0  0
 17 19  1  0  0  0  0
 19 20  1  0  0  0  0
 12 21  4  0  0  0  0
 21 22  1  0  0  0  0
 21 23  4  0  0  0  0
 23 24  1  0  0  0  0
 24 25  2  0  0  0  0
 24 26  1  0  0  0  0
 26 27  1  0  0  0  0
 27 28  1  0  0  0  0
 28 29  1  1  0  0  0
 28 30  1  0  0  0  0
 30 31  1  0  0  0  0
 23 32  4  0  0  0  0
  9 32  4  0  0  0  0
 32 33  1  0  0  0  0
M  END

> <ChembankId>
1774

> <SMILES>
OCCN(C(=O)CO)c1c(I)c(C(=O)NC[C@@H](O)CO)c(I)c(C(=O)NC[C@@H](O)CO)c1I

> <InChI>
1/C18H24I3N3O9/c19-13-11(17(32)22-3-8(29)5-26)14(20)16(24(1-2-25)10(31)7-28)15(21)12(13)18(33)23-4-9(30)6-27/h8-9,25-30H,1-7H2,(H,22,32)(H,23,33)

$$$$
1776
  Marvin  11101114192D          

 34 37  0  0  1  0            999 V2000
    6.8018    3.0229    0.0000 C   0  0  0  0  0  0  0  0  0  0  0  0
    6.0172    2.7679    0.0000 N   0  0  0  0  0  0  0  0  0  0  0  0
    5.4041    3.3200    0.0000 C   0  0  0  0  0  0  0  0  0  0  0  0
    5.8457    1.9610    0.0000 C   0  0  0  0  0  0  0  0  0  0  0  0
    5.0610    1.7060    0.0000 C   0  0  0  0  0  0  0  0  0  0  0  0
    4.8895    0.8990    0.0000 N   0  0  0  0  0  0  0  0  0  0  0  0
    5.4415    0.2859    0.0000 N   0  0  0  0  0  0  0  0  0  0  0  0
    5.0290   -0.4285    0.0000 N   0  0  0  0  0  0  0  0  0  0  0  0
    4.2221   -0.2570    0.0000 N   0  0  0  0  0  0  0  0  0  0  0  0
    4.1358    0.5635    0.0000 C   0  0  0  0  0  0  0  0  0  0  0  0
    3.4214    0.9760    0.0000 S   0  0  0  0  0  0  0  0  0  0  0  0
    2.7069    0.5635    0.0000 C   0  0  0  0  0  0  0  0  0  0  0  0
    1.9924    0.9760    0.0000 C   0  0  0  0  0  0  0  0  0  0  0  0
    1.2780    0.5635    0.0000 C   0  0  0  0  0  0  0  0  0  0  0  0
    0.5635    0.9760    0.0000 N   0  0  0  0  0  0  0  0  0  0  0  0
    0.5635    1.8010    0.0000 C   0  0  2  0  0  0  0  0  0  0  0  0
    1.2780    2.2135    0.0000 S   0  0  0  0  0  0  0  0  0  0  0  0
    1.9924    1.8010    0.0000 C   0  0  0  0  0  0  0  0  0  0  0  0
   -0.2615    1.8010    0.0000 C   0  0  1  0  0  0  0  0  0  0  0  0
   -0.8449    2.3843    0.0000 N   0  0  0  0  0  0  0  0  0  0  0  0
   -1.6418    2.1708    0.0000 C   0  0  0  0  0  0  0  0  0  0  0  0
   -1.8553    1.3739    0.0000 O   0  0  0  0  0  0  0  0  0  0  0  0
   -2.2251    2.7542    0.0000 C   0  0  0  0  0  0  0  0  0  0  0  0
   -3.0220    2.5407    0.0000 C   0  0  0  0  0  0  0  0  0  0  0  0
   -3.3177    1.7705    0.0000 C   0  0  0  0  0  0  0  0  0  0  0  0
   -4.1415    1.8136    0.0000 S   0  0  0  0  0  0  0  0  0  0  0  0
   -4.3551    2.6105    0.0000 C   0  0  0  0  0  0  0  0  0  0  0  0
   -5.1253    2.9062    0.0000 N   0  0  0  0  0  0  0  0  0  0  0  0
   -3.6632    3.0598    0.0000 N   0  0  0  0  0  0  0  0  0  0  0  0
   -0.2615    0.9760    0.0000 C   0  0  0  0  0  0  0  0  0  0  0  0
   -0.8449    0.3926    0.0000 O   0  0  0  0  0  0  0  0  0  0  0  0
    1.2780   -0.2615    0.0000 C   0  0  0  0  0  0  0  0  0  0  0  0
    0.5635   -0.6740    0.0000 O   0  0  0  0  0  0  0  0  0  0  0  0
    1.9924   -0.6740    0.0000 O   0  0  0  0  0  0  0  0  0  0  0  0
  1  2  1  0  0  0  0
  2  3  1  0  0  0  0
  2  4  1  0  0  0  0
  4  5  1  0  0  0  0
  5  6  1  0  0  0  0
  6  7  4  0  0  0  0
  7  8  4  0  0  0  0
  8  9  4  0  0  0  0
  9 10  4  0  0  0  0
  6 10  4  0  0  0  0
 10 11  1  0  0  0  0
 11 12  1  0  0  0  0
 12 13  1  0  0  0  0
 13 14  2  0  0  0  0
 14 15  1  0  0  0  0
 16 15  1  1  0  0  0
 16 17  1  0  0  0  0
 17 18  1  0  0  0  0
 13 18  1  0  0  0  0
 16 19  1  0  0  0  0
 19 20  1  6  0  0  0
 20 21  1  0  0  0  0
 21 22  2  0  0  0  0
 21 23  1  0  0  0  0
 23 24  1  0  0  0  0
 24 25  4  0  0  0  0
 25 26  4  0  0  0  0
 26 27  4  0  0  0  0
 27 28  1  0  0  0  0
 27 29  4  0  0  0  0
 24 29  4  0  0  0  0
 19 30  1  0  0  0  0
 15 30  1  0  0  0  0
 30 31  2  0  0  0  0
 14 32  1  0  0  0  0
 32 33  2  0  0  0  0
 32 34  1  0  0  0  0
M  END

> <ChembankId>
1776

> <SMILES>
CN(C)CCn1nnnc1SCC2=C(N3[C@H](SC2)[C@@H](NC(=O)Cc4csc(N)n4)C3=O)C(=O)O

> <InChI>
1/C18H23N9O4S3/c1-25(2)3-4-26-18(22-23-24-26)34-7-9-6-32-15-12(14(29)27(15)13(9)16(30)31)21-11(28)5-10-8-33-17(19)20-10/h8,12,15H,3-7H2,1-2H3,(H2,19,20)(H,21,28)(H,30,31)

$$$$
1781
  Marvin  11101114192D          

 25 26  0  0  1  0            999 V2000
    0.7145    1.2375    0.0000 C   0  0  0  0  0  0  0  0  0  0  0  0
    1.4289    0.8250    0.0000 C   0  0  0  0  0  0  0  0  0  0  0  0
    1.4289    0.0000    0.0000 O   0  0  0  0  0  0  0  0  0  0  0  0
    0.7145   -0.4125    0.0000 C   0  0  0  0  0  0  0  0  0  0  0  0
    0.0000   -0.0000    0.0000 O   0  0  0  0  0  0  0  0  0  0  0  0
    0.7145   -1.2375    0.0000 C   0  0  0  0  0  0  0  0  0  0  0  0
    0.0000   -1.6500    0.0000 C   0  0  0  0  0  0  0  0  0  0  0  0
   -0.7145   -1.2375    0.0000 C   0  0  0  0  0  0  0  0  0  0  0  0
    0.0000   -2.4750    0.0000 N   0  0  0  0  0  0  0  0  0  0  0  0
    0.7145   -2.8875    0.0000 C   0  0  0  0  0  0  0  0  0  0  0  0
    1.4289   -2.4750    0.0000 C   0  0  0  0  0  0  0  0  0  0  0  0
    1.4289   -1.6500    0.0000 C   0  0  1  0  0  0  0  0  0  0  0  0
    2.1434   -1.2375    0.0000 C   0  0  0  0  0  0  0  0  0  0  0  0
    2.1434   -0.4125    0.0000 C   0  0  0  0  0  0  0  0  0  0  0  0
    2.8579    0.0000    0.0000 C   0  0  0  0  0  0  0  0  0  0  0  0
    3.5724   -0.4125    0.0000 C   0  0  0  0  0  0  0  0  0  0  0  0
    3.5724   -1.2375    0.0000 C   0  0  0  0  0  0  0  0  0  0  0  0
    4.2868   -1.6500    0.0000 Cl  0  0  0  0  0  0  0  0  0  0  0  0
    2.8579   -1.6500    0.0000 C   0  0  0  0  0  0  0  0  0  0  0  0
    3.3428   -2.3174    0.0000 Cl  0  0  0  0  0  0  0  0  0  0  0  0
    2.1434   -2.8875    0.0000 C   0  0  0  0  0  0  0  0  0  0  0  0
    2.1434   -3.7125    0.0000 O   0  0  0  0  0  0  0  0  0  0  0  0
    2.8579   -2.4750    0.0000 O   0  0  0  0  0  0  0  0  0  0  0  0
    3.5724   -2.8875    0.0000 C   0  0  0  0  0  0  0  0  0  0  0  0
    0.7145   -3.7125    0.0000 C   0  0  0  0  0  0  0  0  0  0  0  0
  1  2  1  0  0  0  0
  2  3  1  0  0  0  0
  3  4  1  0  0  0  0
  4  5  2  0  0  0  0
  4  6  1  0  0  0  0
  6  7  2  0  0  0  0
  7  8  1  0  0  0  0
  7  9  1  0  0  0  0
  9 10  1  0  0  0  0
 10 11  2  0  0  0  0
 11 12  1  0  0  0  0
  6 12  1  0  0  0  0
 12 13  1  6  0  0  0
 13 14  4  0  0  0  0
 14 15  4  0  0  0  0
 15 16  4  0  0  0  0
 16 17  4  0  0  0  0
 17 18  1  0  0  0  0
 17 19  4  0  0  0  0
 13 19  4  0  0  0  0
 19 20  1  0  0  0  0
 11 21  1  0  0  0  0
 21 22  2  0  0  0  0
 21 23  1  0  0  0  0
 23 24  1  0  0  0  0
 10 25  1  0  0  0  0
M  END

> <ChembankId>
1781

> <SMILES>
CCOC(=O)C1=C(C)NC(=C([C@H]1c2cccc(Cl)c2Cl)C(=O)OC)C

> <InChI>
1/C18H19Cl2NO4/c1-5-25-18(23)14-10(3)21-9(2)13(17(22)24-4)15(14)11-7-6-8-12(19)16(11)20/h6-8,15,21H,5H2,1-4H3

$$$$
1783
  Marvin  11101114192D          

 20 21  0  0  1  0            999 V2000
   -4.0000    4.1373    0.0000 C   0  0  0  0  0  0  0  0  0  0  0  0
   -3.2031    3.9238    0.0000 C   0  0  1  0  0  0  0  0  0  0  0  0
   -2.6198    4.5072    0.0000 O   0  0  0  0  0  0  0  0  0  0  0  0
   -2.9896    3.1269    0.0000 C   0  0  1  0  0  0  0  0  0  0  0  0
   -2.2751    2.7144    0.0000 C   0  0  2  0  0  0  0  0  0  0  0  0
   -1.4681    2.5429    0.0000 C   0  0  0  0  0  0  0  0  0  0  0  0
   -1.3819    1.7224    0.0000 C   0  0  0  0  0  0  0  0  0  0  0  0
   -2.1356    1.3869    0.0000 C   0  0  0  0  0  0  0  0  0  0  0  0
   -2.6876    2.0000    0.0000 N   0  0  0  0  0  0  0  0  0  0  0  0
   -3.4021    2.4125    0.0000 C   0  0  0  0  0  0  0  0  0  0  0  0
   -4.1990    2.1989    0.0000 O   0  0  0  0  0  0  0  0  0  0  0  0
   -2.3071    0.5799    0.0000 C   0  0  0  0  0  0  0  0  0  0  0  0
   -3.0917    0.3250    0.0000 O   0  0  0  0  0  0  0  0  0  0  0  0
   -1.6940    0.0279    0.0000 O   0  0  0  0  0  0  0  0  0  0  0  0
   -0.6674    1.3099    0.0000 S   0  0  0  0  0  0  0  0  0  0  0  0
    0.0470    1.7224    0.0000 C   0  0  0  0  0  0  0  0  0  0  0  0
    0.7615    1.3099    0.0000 C   0  0  0  0  0  0  0  0  0  0  0  0
    1.4760    1.7224    0.0000 N   0  0  0  0  0  0  0  0  0  0  0  0
    2.1904    1.3099    0.0000 C   0  0  0  0  0  0  0  0  0  0  0  0
    2.9049    1.7224    0.0000 N   0  0  0  0  0  0  0  0  0  0  0  0
  1  2  1  0  0  0  0
  2  3  1  1  0  0  0
  4  2  1  1  0  0  0
  4  5  1  0  0  0  0
  5  6  1  0  0  0  0
  6  7  1  0  0  0  0
  7  8  2  0  0  0  0
  8  9  1  0  0  0  0
  5  9  1  6  0  0  0
  9 10  1  0  0  0  0
  4 10  1  0  0  0  0
 10 11  2  0  0  0  0
  8 12  1  0  0  0  0
 12 13  2  0  0  0  0
 12 14  1  0  0  0  0
  7 15  1  0  0  0  0
 15 16  1  0  0  0  0
 16 17  1  0  0  0  0
 17 18  1  0  0  0  0
 18 19  1  0  0  0  0
 19 20  2  0  0  0  0
M  END

> <ChembankId>
1783

> <SMILES>
C[C@@H](O)[C@H]1[C@@H]2CC(=C(N2C1=O)C(=O)O)SCCNC=N

> <InChI>
1/C12H17N3O4S/c1-6(16)9-7-4-8(20-3-2-14-5-13)10(12(18)19)15(7)11(9)17/h5-7,9,16H,2-4H2,1H3,(H2,13,14)(H,18,19)

$$$$
1785
  Marvin  11101114192D          

 27 30  0  0  1  0            999 V2000
    0.7320   -4.3306    0.0000 C   0  0  0  0  0  0  0  0  0  0  0  0
    1.2383   -3.6793    0.0000 C   0  0  0  0  0  0  0  0  0  0  0  0
    1.8896   -4.1857    0.0000 C   0  0  0  0  0  0  0  0  0  0  0  0
    0.5870   -3.1730    0.0000 C   0  0  0  0  0  0  0  0  0  0  0  0
    1.7447   -3.0280    0.0000 N   0  0  0  0  0  0  0  0  0  0  0  0
    2.5619   -3.1408    0.0000 C   0  0  0  0  0  0  0  0  0  0  0  0
    2.8728   -3.9050    0.0000 O   0  0  0  0  0  0  0  0  0  0  0  0
    3.0683   -2.4895    0.0000 C   0  0  2  0  0  0  0  0  0  0  0  0
    2.8390   -1.6970    0.0000 C   0  0  0  0  0  0  0  0  0  0  0  0
    3.5218   -1.2340    0.0000 C   0  0  0  0  0  0  0  0  0  0  0  0
    4.1731   -1.7404    0.0000 C   0  0  2  0  0  0  0  0  0  0  0  0
    4.9853   -1.5952    0.0000 C   0  0  1  0  0  0  0  0  0  0  0  0
    5.2655   -0.8192    0.0000 C   0  0  0  0  0  0  0  0  0  0  0  0
    6.0777   -0.6740    0.0000 C   0  0  0  0  0  0  0  0  0  0  0  0
    6.6095   -1.3047    0.0000 C   0  0  1  0  0  0  0  0  0  0  0  0
    7.4216   -1.1595    0.0000 N   0  0  0  0  0  0  0  0  0  0  0  0
    7.9534   -1.7902    0.0000 C   0  0  0  0  0  0  0  0  0  0  0  0
    8.7655   -1.6450    0.0000 O   0  0  0  0  0  0  0  0  0  0  0  0
    7.6731   -2.5662    0.0000 C   0  0  0  0  0  0  0  0  0  0  0  0
    6.8610   -2.7114    0.0000 C   0  0  0  0  0  0  0  0  0  0  0  0
    6.3292   -2.0807    0.0000 C   0  0  2  0  0  0  0  0  0  0  0  0
    6.0489   -2.8566    0.0000 C   0  0  0  0  0  0  0  0  0  0  0  0
    5.5171   -2.2259    0.0000 C   0  0  2  0  0  0  0  0  0  0  0  0
    5.2368   -3.0018    0.0000 C   0  0  0  0  0  0  0  0  0  0  0  0
    4.4247   -3.1470    0.0000 C   0  0  0  0  0  0  0  0  0  0  0  0
    3.8928   -2.5163    0.0000 C   0  0  1  0  0  0  0  0  0  0  0  0
    3.5330   -3.2587    0.0000 C   0  0  0  0  0  0  0  0  0  0  0  0
  1  2  1  0  0  0  0
  2  3  1  0  0  0  0
  2  4  1  0  0  0  0
  2  5  1  0  0  0  0
  5  6  1  0  0  0  0
  6  7  2  0  0  0  0
  8  6  1  6  0  0  0
  8  9  1  0  0  0  0
  9 10  1  0  0  0  0
 11 10  1  6  0  0  0
 11 12  1  0  0  0  0
 12 13  1  1  0  0  0
 13 14  1  0  0  0  0
 14 15  1  0  0  0  0
 15 16  1  1  0  0  0
 16 17  1  0  0  0  0
 17 18  2  0  0  0  0
 17 19  1  0  0  0  0
 19 20  2  0  0  0  0
 20 21  1  0  0  0  0
 15 21  1  0  0  0  0
 21 22  1  6  0  0  0
 21 23  1  0  0  0  0
 12 23  1  0  0  0  0
 23 24  1  6  0  0  0
 24 25  1  0  0  0  0
 25 26  1  0  0  0  0
  8 26  1  0  0  0  0
 11 26  1  0  0  0  0
 26 27  1  6  0  0  0
M  END

> <ChembankId>
1785

> <SMILES>
CC(C)(C)NC(=O)[C@@H]1CC[C@@H]2[C@H]3CC[C@H]4NC(=O)C=C[C@@]4(C)[C@@H]3CC[C@@]12C

> <InChI>
1/C23H36N2O2/c1-21(2,3)25-20(27)17-8-7-15-14-6-9-18-23(5,13-11-19(26)24-18)16(14)10-12-22(15,17)4/h11,13-18H,6-10,12H2,1-5H3,(H,24,26)(H,25,27)

$$$$
1786
  Marvin  11101114192D          

 32 34  0  0  1  0            999 V2000
   -3.5724   -5.3625    0.0000 C   0  0  0  0  0  0  0  0  0  0  0  0
   -2.8579   -4.9500    0.0000 O   0  0  0  0  0  0  0  0  0  0  0  0
   -2.1434   -5.3625    0.0000 C   0  0  1  0  0  0  0  0  0  0  0  0
   -1.4289   -4.9500    0.0000 C   0  0  0  0  0  0  0  0  0  0  0  0
   -0.7145   -5.3625    0.0000 N   0  0  0  0  0  0  0  0  0  0  0  0
    0.0000   -4.9500    0.0000 C   0  0  0  0  0  0  0  0  0  0  0  0
    0.7145   -5.3625    0.0000 C   0  0  0  0  0  0  0  0  0  0  0  0
    1.4289   -4.9500    0.0000 C   0  0  0  0  0  0  0  0  0  0  0  0
    2.1434   -5.3625    0.0000 O   0  0  0  0  0  0  0  0  0  0  0  0
    2.8579   -4.9500    0.0000 C   0  0  0  0  0  0  0  0  0  0  0  0
    2.8579   -4.1250    0.0000 C   0  0  0  0  0  0  0  0  0  0  0  0
    3.5724   -3.7125    0.0000 C   0  0  0  0  0  0  0  0  0  0  0  0
    4.2868   -4.1250    0.0000 C   0  0  0  0  0  0  0  0  0  0  0  0
    5.0013   -3.7125    0.0000 F   0  0  0  0  0  0  0  0  0  0  0  0
    4.2868   -4.9500    0.0000 C   0  0  0  0  0  0  0  0  0  0  0  0
    3.5724   -5.3625    0.0000 C   0  0  0  0  0  0  0  0  0  0  0  0
   -0.7145   -6.1875    0.0000 C   0  0  0  0  0  0  0  0  0  0  0  0
   -1.4289   -6.6000    0.0000 C   0  0  0  0  0  0  0  0  0  0  0  0
   -2.1434   -6.1875    0.0000 C   0  0  1  0  0  0  0  0  0  0  0  0
   -2.8579   -6.6000    0.0000 N   0  0  0  0  0  0  0  0  0  0  0  0
   -2.8579   -7.4250    0.0000 C   0  0  0  0  0  0  0  0  0  0  0  0
   -2.1434   -7.8375    0.0000 O   0  0  0  0  0  0  0  0  0  0  0  0
   -3.5724   -7.8375    0.0000 C   0  0  0  0  0  0  0  0  0  0  0  0
   -3.5724   -8.6625    0.0000 C   0  0  0  0  0  0  0  0  0  0  0  0
   -4.2868   -9.0750    0.0000 C   0  0  0  0  0  0  0  0  0  0  0  0
   -4.2868   -9.9000    0.0000 Cl  0  0  0  0  0  0  0  0  0  0  0  0
   -5.0013   -8.6625    0.0000 C   0  0  0  0  0  0  0  0  0  0  0  0
   -5.7158   -9.0750    0.0000 N   0  0  0  0  0  0  0  0  0  0  0  0
   -5.0013   -7.8375    0.0000 C   0  0  0  0  0  0  0  0  0  0  0  0
   -4.2868   -7.4250    0.0000 C   0  0  0  0  0  0  0  0  0  0  0  0
   -4.2868   -6.6000    0.0000 O   0  0  0  0  0  0  0  0  0  0  0  0
   -3.5724   -6.1875    0.0000 C   0  0  0  0  0  0  0  0  0  0  0  0
  1  2  1  0  0  0  0
  3  2  1  1  0  0  0
  3  4  1  0  0  0  0
  4  5  1  0  0  0  0
  5  6  1  0  0  0  0
  6  7  1  0  0  0  0
  7  8  1  0  0  0  0
  8  9  1  0  0  0  0
  9 10  1  0  0  0  0
 10 11  4  0  0  0  0
 11 12  4  0  0  0  0
 12 13  4  0  0  0  0
 13 14  1  0  0  0  0
 13 15  4  0  0  0  0
 15 16  4  0  0  0  0
 10 16  4  0  0  0  0
  5 17  1  0  0  0  0
 17 18  1  0  0  0  0
 18 19  1  0  0  0  0
  3 19  1  0  0  0  0
 19 20  1  1  0  0  0
 20 21  1  0  0  0  0
 21 22  2  0  0  0  0
 21 23  1  0  0  0  0
 23 24  4  0  0  0  0
 24 25  4  0  0  0  0
 25 26  1  0  0  0  0
 25 27  4  0  0  0  0
 27 28  1  0  0  0  0
 27 29  4  0  0  0  0
 29 30  4  0  0  0  0
 23 30  4  0  0  0  0
 30 31  1  0  0  0  0
 31 32  1  0  0  0  0
M  END

> <ChembankId>
1786

> <SMILES>
CO[C@H]1CN(CCCOc2ccc(F)cc2)CC[C@H]1NC(=O)c3cc(Cl)c(N)cc3OC

> <InChI>
1/C23H29ClFN3O4/c1-30-21-13-19(26)18(24)12-17(21)23(29)27-20-8-10-28(14-22(20)31-2)9-3-11-32-16-6-4-15(25)5-7-16/h4-7,12-13,20,22H,3,8-11,14,26H2,1-2H3,(H,27,29)

$$$$
1798
  Marvin  11101114192D          

  9  8  0  0  1  0            999 V2000
    4.6184    2.6664    0.0000 N   0  0  0  0  0  0  0  0  0  0  0  0
    4.6184    1.8414    0.0000 C   0  0  1  0  0  0  0  0  0  0  0  0
    3.9039    1.4289    0.0000 C   0  0  0  0  0  0  0  0  0  0  0  0
    3.1895    1.8414    0.0000 C   0  0  0  0  0  0  0  0  0  0  0  0
    2.4750    1.4289    0.0000 C   0  0  0  0  0  0  0  0  0  0  0  0
    1.7605    1.8414    0.0000 O   0  0  0  0  0  0  0  0  0  0  0  0
    2.4750    0.6039    0.0000 O   0  0  0  0  0  0  0  0  0  0  0  0
    5.3329    1.4289    0.0000 C   0  0  0  0  0  0  0  0  0  0  0  0
    6.0474    1.8414    0.0000 C   0  0  0  0  0  0  0  0  0  0  0  0
  2  1  1  6  0  0  0
  2  3  1  0  0  0  0
  3  4  1  0  0  0  0
  4  5  1  0  0  0  0
  5  6  2  0  0  0  0
  5  7  1  0  0  0  0
  2  8  1  0  0  0  0
  8  9  2  0  0  0  0
M  END

> <ChembankId>
1798

> <SMILES>
N[C@@H](CCC(=O)O)C=C

> <InChI>
1/C6H11NO2/c1-2-5(7)3-4-6(8)9/h2,5H,1,3-4,7H2,(H,8,9)

$$$$
1823
  Marvin  11101114192D          

 22 24  0  0  1  0            999 V2000
   -0.0592   -0.8773    0.0000 C   0  0  0  0  0  0  0  0  0  0  0  0
    0.7478   -1.0488    0.0000 C   0  0  0  0  0  0  0  0  0  0  0  0
    0.4929   -1.8335    0.0000 C   0  0  0  0  0  0  0  0  0  0  0  0
    0.8341   -0.2284    0.0000 O   0  0  0  0  0  0  0  0  0  0  0  0
    1.6410   -0.0568    0.0000 C   0  0  0  0  0  0  0  0  0  0  0  0
    2.0535    0.6576    0.0000 C   0  0  0  0  0  0  0  0  0  0  0  0
    2.8785    0.6576    0.0000 O   0  0  0  0  0  0  0  0  0  0  0  0
    3.2910   -0.0568    0.0000 C   0  0  1  0  0  0  0  0  0  0  0  0
    3.7760    0.6106    0.0000 C   0  0  0  0  0  0  0  0  0  0  0  0
    4.5964    0.5244    0.0000 O   0  0  0  0  0  0  0  0  0  0  0  0
    5.0814    1.1918    0.0000 S   0  0  0  0  0  0  0  0  0  0  0  0
    5.5663    1.8593    0.0000 O   0  0  0  0  0  0  0  0  0  0  0  0
    5.7488    0.7069    0.0000 O   0  0  0  0  0  0  0  0  0  0  0  0
    4.4139    1.6767    0.0000 N   0  0  0  0  0  0  0  0  0  0  0  0
    4.0980   -0.2284    0.0000 O   0  0  0  0  0  0  0  0  0  0  0  0
    4.1842   -1.0488    0.0000 C   0  0  0  0  0  0  0  0  0  0  0  0
    4.9912   -0.8773    0.0000 C   0  0  0  0  0  0  0  0  0  0  0  0
    4.4392   -1.8335    0.0000 C   0  0  0  0  0  0  0  0  0  0  0  0
    3.4306   -1.3844    0.0000 O   0  0  0  0  0  0  0  0  0  0  0  0
    2.8785   -0.7713    0.0000 C   0  0  2  0  0  0  0  0  0  0  0  0
    2.0535   -0.7713    0.0000 C   0  0  0  0  0  0  0  0  0  0  0  0
    1.5015   -1.3844    0.0000 O   0  0  0  0  0  0  0  0  0  0  0  0
  1  2  1  0  0  0  0
  2  3  1  0  0  0  0
  2  4  1  0  0  0  0
  4  5  1  0  0  0  0
  5  6  1  0  0  0  0
  6  7  1  0  0  0  0
  7  8  1  0  0  0  0
  8  9  1  6  0  0  0
  9 10  1  0  0  0  0
 10 11  1  0  0  0  0
 11 12  2  0  0  0  0
 11 13  2  0  0  0  0
 11 14  1  0  0  0  0
  8 15  1  0  0  0  0
 15 16  1  0  0  0  0
 16 17  1  0  0  0  0
 16 18  1  0  0  0  0
 16 19  1  0  0  0  0
 20 19  1  6  0  0  0
  8 20  1  0  0  0  0
 20 21  1  0  0  0  0
  5 21  1  0  0  0  0
 21 22  1  0  0  0  0
  2 22  1  0  0  0  0
M  END

> <ChembankId>
1823

> <SMILES>
CC1(C)OC2CO[C@@]3(COS(=O)(=O)N)OC(C)(C)O[C@@H]3C2O1

> <InChI>
1/C12H21NO8S/c1-10(2)18-7-5-16-12(6-17-22(13,14)15)9(8(7)19-10)20-11(3,4)21-12/h7-9H,5-6H2,1-4H3,(H2,13,14,15)

$$$$
1824
  Marvin  11101114192D          

 19 19  0  0  1  0            999 V2000
   -1.4289   -2.4750    0.0000 C   0  0  0  0  0  0  0  0  0  0  0  0
   -1.4289   -1.6500    0.0000 O   0  0  0  0  0  0  0  0  0  0  0  0
   -0.7145   -1.2375    0.0000 C   0  0  0  0  0  0  0  0  0  0  0  0
   -0.7145   -0.4125    0.0000 C   0  0  0  0  0  0  0  0  0  0  0  0
   -0.0000    0.0000    0.0000 C   0  0  0  0  0  0  0  0  0  0  0  0
   -0.0000    0.8250    0.0000 C   0  0  0  0  0  0  0  0  0  0  0  0
    0.7145    1.2375    0.0000 C   0  0  0  0  0  0  0  0  0  0  0  0
    1.4289    0.8250    0.0000 C   0  0  0  0  0  0  0  0  0  0  0  0
    2.1434    1.2375    0.0000 O   0  0  0  0  0  0  0  0  0  0  0  0
    2.8579    0.8250    0.0000 C   0  0  0  0  0  0  0  0  0  0  0  0
    3.5724    1.2375    0.0000 C   0  0  1  0  0  0  0  0  0  0  0  0
    3.5724    2.0625    0.0000 O   0  0  0  0  0  0  0  0  0  0  0  0
    4.2868    0.8250    0.0000 C   0  0  0  0  0  0  0  0  0  0  0  0
    5.0013    1.2375    0.0000 N   0  0  0  0  0  0  0  0  0  0  0  0
    5.7158    0.8250    0.0000 C   0  0  0  0  0  0  0  0  0  0  0  0
    6.4302    1.2375    0.0000 C   0  0  0  0  0  0  0  0  0  0  0  0
    5.7158    0.0000    0.0000 C   0  0  0  0  0  0  0  0  0  0  0  0
    1.4289    0.0000    0.0000 C   0  0  0  0  0  0  0  0  0  0  0  0
    0.7145   -0.4125    0.0000 C   0  0  0  0  0  0  0  0  0  0  0  0
  1  2  1  0  0  0  0
  2  3  1  0  0  0  0
  3  4  1  0  0  0  0
  4  5  1  0  0  0  0
  5  6  4  0  0  0  0
  6  7  4  0  0  0  0
  7  8  4  0  0  0  0
  8  9  1  0  0  0  0
  9 10  1  0  0  0  0
 10 11  1  0  0  0  0
 11 12  1  1  0  0  0
 11 13  1  0  0  0  0
 13 14  1  0  0  0  0
 14 15  1  0  0  0  0
 15 16  1  0  0  0  0
 15 17  1  0  0  0  0
  8 18  4  0  0  0  0
 18 19  4  0  0  0  0
  5 19  4  0  0  0  0
M  END

> <ChembankId>
1824

> <SMILES>
COCCc1ccc(OC[C@@H](O)CNC(C)C)cc1

> <InChI>
1/C15H25NO3/c1-12(2)16-10-14(17)11-19-15-6-4-13(5-7-15)8-9-18-3/h4-7,12,14,16-17H,8-11H2,1-3H3

$$$$
1828
  Marvin  11101114192D          

 30 32  0  0  1  0            999 V2000
    3.8840    4.0783    0.0000 C   0  0  0  0  0  0  0  0  0  0  0  0
    3.8840    3.2533    0.0000 C   0  0  0  0  0  0  0  0  0  0  0  0
    4.5985    2.8408    0.0000 O   0  0  0  0  0  0  0  0  0  0  0  0
    4.5985    2.0158    0.0000 C   0  0  0  0  0  0  0  0  0  0  0  0
    3.8840    1.6033    0.0000 O   0  0  0  0  0  0  0  0  0  0  0  0
    5.3130    1.6033    0.0000 C   0  0  2  0  0  0  0  0  0  0  0  0
    5.3130    0.7783    0.0000 C   0  0  0  0  0  0  0  0  0  0  0  0
    4.5985    0.3658    0.0000 C   0  0  0  0  0  0  0  0  0  0  0  0
    4.5985   -0.4592    0.0000 C   0  0  0  0  0  0  0  0  0  0  0  0
    5.3130   -0.8717    0.0000 C   0  0  0  0  0  0  0  0  0  0  0  0
    5.3130   -1.6967    0.0000 C   0  0  0  0  0  0  0  0  0  0  0  0
    4.5985   -2.1092    0.0000 C   0  0  0  0  0  0  0  0  0  0  0  0
    3.8840   -1.6967    0.0000 C   0  0  0  0  0  0  0  0  0  0  0  0
    3.8840   -0.8717    0.0000 C   0  0  0  0  0  0  0  0  0  0  0  0
    6.0274    2.0158    0.0000 N   0  0  0  0  0  0  0  0  0  0  0  0
    6.0274    2.8408    0.0000 C   0  0  1  0  0  0  0  0  0  0  0  0
    5.3130    3.2533    0.0000 C   0  0  0  0  0  0  0  0  0  0  0  0
    6.7419    3.2533    0.0000 C   0  0  0  0  0  0  0  0  0  0  0  0
    6.7419    4.0783    0.0000 O   0  0  0  0  0  0  0  0  0  0  0  0
    7.4564    2.8408    0.0000 N   0  0  0  0  0  0  0  0  0  0  0  0
    8.2100    3.1763    0.0000 C   0  0  1  0  0  0  0  0  0  0  0  0
    8.7621    2.5633    0.0000 C   0  0  0  0  0  0  0  0  0  0  0  0
    8.3496    1.8488    0.0000 C   0  0  1  0  0  0  0  0  0  0  0  0
    8.4358    1.0283    0.0000 C   0  0  0  0  0  0  0  0  0  0  0  0
    7.6821    0.6927    0.0000 C   0  0  0  0  0  0  0  0  0  0  0  0
    7.1301    1.3058    0.0000 C   0  0  0  0  0  0  0  0  0  0  0  0
    7.5426    2.0203    0.0000 C   0  0  1  0  0  0  0  0  0  0  0  0
    8.3816    3.9833    0.0000 C   0  0  0  0  0  0  0  0  0  0  0  0
    9.1662    4.2383    0.0000 O   0  0  0  0  0  0  0  0  0  0  0  0
    7.7685    4.5354    0.0000 O   0  0  0  0  0  0  0  0  0  0  0  0
  1  2  1  0  0  0  0
  2  3  1  0  0  0  0
  3  4  1  0  0  0  0
  4  5  2  0  0  0  0
  4  6  1  0  0  0  0
  6  7  1  0  0  0  0
  7  8  1  0  0  0  0
  8  9  1  0  0  0  0
  9 10  4  0  0  0  0
 10 11  4  0  0  0  0
 11 12  4  0  0  0  0
 12 13  4  0  0  0  0
 13 14  4  0  0  0  0
  9 14  4  0  0  0  0
  6 15  1  1  0  0  0
 15 16  1  0  0  0  0
 16 17  1  1  0  0  0
 16 18  1  0  0  0  0
 18 19  2  0  0  0  0
 18 20  1  0  0  0  0
 20 21  1  0  0  0  0
 21 22  1  0  0  0  0
 23 22  1  1  0  0  0
 23 24  1  0  0  0  0
 24 25  1  0  0  0  0
 25 26  1  0  0  0  0
 26 27  1  0  0  0  0
 23 27  1  0  0  0  0
 27 20  1  1  0  0  0
 21 28  1  6  0  0  0
 28 29  2  0  0  0  0
 28 30  1  0  0  0  0
M  END

> <ChembankId>
1828

> <SMILES>
CCOC(=O)[C@H](CCc1ccccc1)N[C@@H](C)C(=O)N2[C@@H](C[C@H]3CCC[C@H]32)C(=O)O

> <InChI>
1/C23H32N2O5/c1-3-30-23(29)18(13-12-16-8-5-4-6-9-16)24-15(2)21(26)25-19-11-7-10-17(19)14-20(25)22(27)28/h4-6,8-9,15,17-20,24H,3,7,10-14H2,1-2H3,(H,27,28)

$$$$
1830
  Marvin  11101114192D          

 32 32  0  0  1  0            999 V2000
   -2.1434   -2.8875    0.0000 C   0  0  0  0  0  0  0  0  0  0  0  0
   -1.4289   -2.4750    0.0000 O   0  0  0  0  0  0  0  0  0  0  0  0
   -1.4289   -1.6500    0.0000 C   0  0  0  0  0  0  0  0  0  0  0  0
   -0.7145   -1.2375    0.0000 C   0  0  0  0  0  0  0  0  0  0  0  0
   -0.0000   -1.6500    0.0000 O   0  0  0  0  0  0  0  0  0  0  0  0
   -0.7145   -0.4125    0.0000 N   0  0  0  0  0  0  0  0  0  0  0  0
    0.0000    0.0000    0.0000 C   0  0  0  0  0  0  0  0  0  0  0  0
    0.0000    0.8250    0.0000 C   0  0  0  0  0  0  0  0  0  0  0  0
   -0.7145    1.2375    0.0000 I   0  0  0  0  0  0  0  0  0  0  0  0
    0.7145    1.2375    0.0000 C   0  0  0  0  0  0  0  0  0  0  0  0
    0.7145    2.0625    0.0000 C   0  0  0  0  0  0  0  0  0  0  0  0
    1.4289    2.4750    0.0000 O   0  0  0  0  0  0  0  0  0  0  0  0
    0.0000    2.4750    0.0000 N   0  0  0  0  0  0  0  0  0  0  0  0
    0.0000    3.3000    0.0000 C   0  0  0  0  0  0  0  0  0  0  0  0
   -0.7145    3.7125    0.0000 C   0  0  1  0  0  0  0  0  0  0  0  0
   -1.4289    3.3000    0.0000 O   0  0  0  0  0  0  0  0  0  0  0  0
   -0.7145    4.5375    0.0000 C   0  0  0  0  0  0  0  0  0  0  0  0
   -1.4289    4.9500    0.0000 O   0  0  0  0  0  0  0  0  0  0  0  0
    1.4289    0.8250    0.0000 C   0  0  0  0  0  0  0  0  0  0  0  0
    2.1434    1.2375    0.0000 I   0  0  0  0  0  0  0  0  0  0  0  0
    1.4289    0.0000    0.0000 C   0  0  0  0  0  0  0  0  0  0  0  0
    2.1434   -0.4125    0.0000 C   0  0  0  0  0  0  0  0  0  0  0  0
    2.1434   -1.2375    0.0000 O   0  0  0  0  0  0  0  0  0  0  0  0
    2.8579    0.0000    0.0000 N   0  0  0  0  0  0  0  0  0  0  0  0
    2.8579    0.8250    0.0000 C   0  0  0  0  0  0  0  0  0  0  0  0
    3.5724   -0.4125    0.0000 C   0  0  0  0  0  0  0  0  0  0  0  0
    4.2868    0.0000    0.0000 C   0  0  1  0  0  0  0  0  0  0  0  0
    4.2868    0.8250    0.0000 O   0  0  0  0  0  0  0  0  0  0  0  0
    5.0013   -0.4125    0.0000 C   0  0  0  0  0  0  0  0  0  0  0  0
    5.7158    0.0000    0.0000 O   0  0  0  0  0  0  0  0  0  0  0  0
    0.7145   -0.4125    0.0000 C   0  0  0  0  0  0  0  0  0  0  0  0
    0.7145   -1.2375    0.0000 I   0  0  0  0  0  0  0  0  0  0  0  0
  1  2  1  0  0  0  0
  2  3  1  0  0  0  0
  3  4  1  0  0  0  0
  4  5  2  0  0  0  0
  4  6  1  0  0  0  0
  6  7  1  0  0  0  0
  7  8  4  0  0  0  0
  8  9  1  0  0  0  0
  8 10  4  0  0  0  0
 10 11  1  0  0  0  0
 11 12  2  0  0  0  0
 11 13  1  0  0  0  0
 13 14  1  0  0  0  0
 14 15  1  0  0  0  0
 15 16  1  1  0  0  0
 15 17  1  0  0  0  0
 17 18  1  0  0  0  0
 10 19  4  0  0  0  0
 19 20  1  0  0  0  0
 19 21  4  0  0  0  0
 21 22  1  0  0  0  0
 22 23  2  0  0  0  0
 22 24  1  0  0  0  0
 24 25  1  0  0  0  0
 24 26  1  0  0  0  0
 26 27  1  0  0  0  0
 27 28  1  1  0  0  0
 27 29  1  0  0  0  0
 29 30  1  0  0  0  0
 21 31  4  0  0  0  0
  7 31  4  0  0  0  0
 31 32  1  0  0  0  0
M  END

> <ChembankId>
1830

> <SMILES>
COCC(=O)Nc1c(I)c(C(=O)NC[C@@H](O)CO)c(I)c(C(=O)N(C)C[C@@H](O)CO)c1I

> <InChI>
1/C18H24I3N3O8/c1-24(4-9(28)6-26)18(31)12-13(19)11(17(30)22-3-8(27)5-25)14(20)16(15(12)21)23-10(29)7-32-2/h8-9,25-28H,3-7H2,1-2H3,(H,22,30)(H,23,29)

$$$$
1841
  Marvin  11101114192D          

 16 16  0  0  1  0            999 V2000
   -0.7145   -2.8875    0.0000 C   0  0  0  0  0  0  0  0  0  0  0  0
   -0.7145   -2.0625    0.0000 C   0  0  1  0  0  0  0  0  0  0  0  0
   -1.4289   -1.6500    0.0000 N   0  0  0  0  0  0  0  0  0  0  0  0
   -2.1434   -2.0625    0.0000 C   0  0  0  0  0  0  0  0  0  0  0  0
   -2.8579   -2.4750    0.0000 C   0  0  0  0  0  0  0  0  0  0  0  0
   -1.7309   -2.7770    0.0000 C   0  0  0  0  0  0  0  0  0  0  0  0
   -2.5559   -1.3480    0.0000 C   0  0  0  0  0  0  0  0  0  0  0  0
    0.0000   -1.6500    0.0000 C   0  0  0  0  0  0  0  0  0  0  0  0
    0.0000   -0.8250    0.0000 O   0  0  0  0  0  0  0  0  0  0  0  0
    0.7145   -2.0625    0.0000 C   0  0  0  0  0  0  0  0  0  0  0  0
    1.4289   -1.6500    0.0000 C   0  0  0  0  0  0  0  0  0  0  0  0
    2.1434   -2.0625    0.0000 C   0  0  0  0  0  0  0  0  0  0  0  0
    2.1434   -2.8875    0.0000 C   0  0  0  0  0  0  0  0  0  0  0  0
    1.4289   -3.3000    0.0000 C   0  0  0  0  0  0  0  0  0  0  0  0
    1.4289   -4.1250    0.0000 Cl  0  0  0  0  0  0  0  0  0  0  0  0
    0.7145   -2.8875    0.0000 C   0  0  0  0  0  0  0  0  0  0  0  0
  2  1  1  1  0  0  0
  2  3  1  0  0  0  0
  3  4  1  0  0  0  0
  4  5  1  0  0  0  0
  4  6  1  0  0  0  0
  4  7  1  0  0  0  0
  2  8  1  0  0  0  0
  8  9  2  0  0  0  0
  8 10  1  0  0  0  0
 10 11  4  0  0  0  0
 11 12  4  0  0  0  0
 12 13  4  0  0  0  0
 13 14  4  0  0  0  0
 14 15  1  0  0  0  0
 14 16  4  0  0  0  0
 10 16  4  0  0  0  0
M  END

> <ChembankId>
1841

> <SMILES>
C[C@@H](NC(C)(C)C)C(=O)c1cccc(Cl)c1

> <InChI>
1/C13H18ClNO/c1-9(15-13(2,3)4)12(16)10-6-5-7-11(14)8-10/h5-9,15H,1-4H3

$$$$
1844
  Marvin  11101114192D          

 28 30  0  0  1  0            999 V2000
   -5.0013    4.5375    0.0000 C   0  0  0  0  0  0  0  0  0  0  0  0
   -4.2868    4.1250    0.0000 O   0  0  0  0  0  0  0  0  0  0  0  0
   -4.2868    3.3000    0.0000 C   0  0  0  0  0  0  0  0  0  0  0  0
   -3.5724    2.8875    0.0000 C   0  0  0  0  0  0  0  0  0  0  0  0
   -3.5724    2.0625    0.0000 C   0  0  0  0  0  0  0  0  0  0  0  0
   -2.8579    1.6500    0.0000 N   0  0  0  0  0  0  0  0  0  0  0  0
   -2.8579    0.8250    0.0000 C   0  0  0  0  0  0  0  0  0  0  0  0
   -3.5724    0.4125    0.0000 N   0  0  0  0  0  0  0  0  0  0  0  0
   -4.2868    0.8250    0.0000 C   0  0  0  0  0  0  0  0  0  0  0  0
   -5.0013    0.4125    0.0000 N   0  0  0  0  0  0  0  0  0  0  0  0
   -4.2868    1.6500    0.0000 C   0  0  0  0  0  0  0  0  0  0  0  0
   -5.0013    2.0625    0.0000 C   0  0  0  0  0  0  0  0  0  0  0  0
   -5.0013    2.8875    0.0000 C   0  0  0  0  0  0  0  0  0  0  0  0
   -5.7158    3.3000    0.0000 O   0  0  0  0  0  0  0  0  0  0  0  0
   -6.4302    2.8875    0.0000 C   0  0  0  0  0  0  0  0  0  0  0  0
   -2.1434    0.4125    0.0000 N   0  0  0  0  0  0  0  0  0  0  0  0
   -2.1434   -0.4125    0.0000 C   0  0  0  0  0  0  0  0  0  0  0  0
   -1.4289    0.8250    0.0000 C   0  0  0  0  0  0  0  0  0  0  0  0
   -0.7145    0.4125    0.0000 C   0  0  0  0  0  0  0  0  0  0  0  0
    0.0000    0.8250    0.0000 C   0  0  0  0  0  0  0  0  0  0  0  0
    0.7145    0.4125    0.0000 N   0  0  0  0  0  0  0  0  0  0  0  0
    1.4289    0.8250    0.0000 C   0  0  0  0  0  0  0  0  0  0  0  0
    1.4289    1.6500    0.0000 O   0  0  0  0  0  0  0  0  0  0  0  0
    2.1434    0.4125    0.0000 C   0  0  2  0  0  0  0  0  0  0  0  0
    2.8971    0.7481    0.0000 C   0  0  0  0  0  0  0  0  0  0  0  0
    3.4491    0.1350    0.0000 C   0  0  0  0  0  0  0  0  0  0  0  0
    3.0366   -0.5795    0.0000 C   0  0  0  0  0  0  0  0  0  0  0  0
    2.2296   -0.4080    0.0000 O   0  0  0  0  0  0  0  0  0  0  0  0
  1  2  1  0  0  0  0
  2  3  1  0  0  0  0
  3  4  4  0  0  0  0
  4  5  4  0  0  0  0
  5  6  4  0  0  0  0
  6  7  4  0  0  0  0
  7  8  4  0  0  0  0
  8  9  4  0  0  0  0
  9 10  1  0  0  0  0
  9 11  4  0  0  0  0
  5 11  4  0  0  0  0
 11 12  4  0  0  0  0
 12 13  4  0  0  0  0
  3 13  4  0  0  0  0
 13 14  1  0  0  0  0
 14 15  1  0  0  0  0
  7 16  1  0  0  0  0
 16 17  1  0  0  0  0
 16 18  1  0  0  0  0
 18 19  1  0  0  0  0
 19 20  1  0  0  0  0
 20 21  1  0  0  0  0
 21 22  1  0  0  0  0
 22 23  2  0  0  0  0
 24 22  1  6  0  0  0
 24 25  1  0  0  0  0
 25 26  1  0  0  0  0
 26 27  1  0  0  0  0
 27 28  1  0  0  0  0
 24 28  1  0  0  0  0
M  END

> <ChembankId>
1844

> <SMILES>
COc1cc2nc(nc(N)c2cc1OC)N(C)CCCNC(=O)[C@@H]3CCCO3

> <InChI>
1/C19H27N5O4/c1-24(8-5-7-21-18(25)14-6-4-9-28-14)19-22-13-11-16(27-3)15(26-2)10-12(13)17(20)23-19/h10-11,14H,4-9H2,1-3H3,(H,21,25)(H2,20,22,23)

$$$$
1845
  Marvin  11101114192D          

 35 35  0  0  1  0            999 V2000
   -1.4873    5.5517    0.0000 C   0  0  0  0  0  0  0  0  0  0  0  0
   -0.9153    6.1462    0.0000 C   0  0  0  0  0  0  0  0  0  0  0  0
   -0.1144    5.9481    0.0000 C   0  0  0  0  0  0  0  0  0  0  0  0
    0.4576    6.5425    0.0000 C   0  0  0  0  0  0  0  0  0  0  0  0
    1.2585    6.3444    0.0000 C   0  0  0  0  0  0  0  0  0  0  0  0
    1.8305    6.9389    0.0000 C   0  0  0  0  0  0  0  0  0  0  0  0
    2.6313    6.7407    0.0000 C   0  0  0  0  0  0  0  0  0  0  0  0
    3.2034    7.3352    0.0000 C   0  0  0  0  0  0  0  0  0  0  0  0
    4.0042    7.1370    0.0000 C   0  0  0  0  0  0  0  0  0  0  0  0
    4.5763    7.7315    0.0000 C   0  0  0  0  0  0  0  0  0  0  0  0
    5.3771    7.5333    0.0000 C   0  0  0  0  0  0  0  0  0  0  0  0
    5.9491    8.1278    0.0000 C   0  0  2  0  0  0  0  0  0  0  0  0
    5.7203    8.9204    0.0000 C   0  0  0  0  0  0  0  0  0  0  0  0
    4.9195    9.1186    0.0000 C   0  0  2  0  0  0  0  0  0  0  0  0
    4.2131    8.6924    0.0000 O   0  0  0  0  0  0  0  0  0  0  0  0
    3.7869    9.3988    0.0000 C   0  0  0  0  0  0  0  0  0  0  0  0
    2.9861    9.5970    0.0000 O   0  0  0  0  0  0  0  0  0  0  0  0
    4.4933    9.8250    0.0000 C   0  0  2  0  0  0  0  0  0  0  0  0
    4.6915   10.6258    0.0000 C   0  0  0  0  0  0  0  0  0  0  0  0
    4.0970   11.1979    0.0000 C   0  0  0  0  0  0  0  0  0  0  0  0
    4.2952   11.9987    0.0000 C   0  0  0  0  0  0  0  0  0  0  0  0
    3.7007   12.5708    0.0000 C   0  0  0  0  0  0  0  0  0  0  0  0
    3.8988   13.3716    0.0000 C   0  0  0  0  0  0  0  0  0  0  0  0
    3.3044   13.9437    0.0000 C   0  0  0  0  0  0  0  0  0  0  0  0
    6.7500    7.9296    0.0000 O   0  0  0  0  0  0  0  0  0  0  0  0
    6.9788    7.1370    0.0000 C   0  0  0  0  0  0  0  0  0  0  0  0
    6.4068    6.5425    0.0000 O   0  0  0  0  0  0  0  0  0  0  0  0
    7.7796    6.9389    0.0000 C   0  0  2  0  0  0  0  0  0  0  0  0
    8.3517    7.5333    0.0000 C   0  0  0  0  0  0  0  0  0  0  0  0
    8.1229    8.3260    0.0000 C   0  0  0  0  0  0  0  0  0  0  0  0
    7.3220    8.5241    0.0000 C   0  0  0  0  0  0  0  0  0  0  0  0
    8.6949    8.9204    0.0000 C   0  0  0  0  0  0  0  0  0  0  0  0
    8.0085    6.1462    0.0000 N   0  0  0  0  0  0  0  0  0  0  0  0
    8.8093    5.9481    0.0000 C   0  0  0  0  0  0  0  0  0  0  0  0
    9.3813    6.5425    0.0000 O   0  0  0  0  0  0  0  0  0  0  0  0
  1  2  1  0  0  0  0
  2  3  1  0  0  0  0
  3  4  1  0  0  0  0
  4  5  1  0  0  0  0
  5  6  1  0  0  0  0
  6  7  1  0  0  0  0
  7  8  1  0  0  0  0
  8  9  1  0  0  0  0
  9 10  1  0  0  0  0
 10 11  1  0  0  0  0
 11 12  1  0  0  0  0
 12 13  1  0  0  0  0
 14 13  1  6  0  0  0
 14 15  1  0  0  0  0
 15 16  1  0  0  0  0
 16 17  2  0  0  0  0
 16 18  1  0  0  0  0
 14 18  1  0  0  0  0
 18 19  1  6  0  0  0
 19 20  1  0  0  0  0
 20 21  1  0  0  0  0
 21 22  1  0  0  0  0
 22 23  1  0  0  0  0
 23 24  1  0  0  0  0
 12 25  1  6  0  0  0
 25 26  1  0  0  0  0
 26 27  2  0  0  0  0
 26 28  1  0  0  0  0
 28 29  1  0  0  0  0
 29 30  1  0  0  0  0
 30 31  1  0  0  0  0
 30 32  1  0  0  0  0
 28 33  1  6  0  0  0
 33 34  1  0  0  0  0
 34 35  2  0  0  0  0
M  END

> <ChembankId>
1845

> <SMILES>
CCCCCCCCCCC[C@H](C[C@@H]1OC(=O)[C@@H]1CCCCCC)OC(=O)[C@H](CC(C)C)NC=O

> <InChI>
1/C29H53NO5/c1-5-7-9-11-12-13-14-15-16-18-24(34-29(33)26(30-22-31)20-23(3)4)21-27-25(28(32)35-27)19-17-10-8-6-2/h22-27H,5-21H2,1-4H3,(H,30,31)

$$$$
1848
  Marvin  11101114192D          

 23 23  0  0  1  0            999 V2000
   -2.8579   -4.1250    0.0000 C   0  0  0  0  0  0  0  0  0  0  0  0
   -2.1434   -3.7125    0.0000 C   0  0  0  0  0  0  0  0  0  0  0  0
   -1.4289   -4.1250    0.0000 C   0  0  0  0  0  0  0  0  0  0  0  0
   -2.1434   -2.8875    0.0000 N   0  0  0  0  0  0  0  0  0  0  0  0
   -1.4289   -2.4750    0.0000 C   0  0  0  0  0  0  0  0  0  0  0  0
   -1.4289   -1.6500    0.0000 C   0  0  2  0  0  0  0  0  0  0  0  0
   -2.1434   -1.2375    0.0000 O   0  0  0  0  0  0  0  0  0  0  0  0
   -0.7145   -1.2375    0.0000 C   0  0  0  0  0  0  0  0  0  0  0  0
   -0.7145   -0.4125    0.0000 O   0  0  0  0  0  0  0  0  0  0  0  0
   -0.0000    0.0000    0.0000 C   0  0  0  0  0  0  0  0  0  0  0  0
   -0.0000    0.8250    0.0000 C   0  0  0  0  0  0  0  0  0  0  0  0
    0.7145    1.2375    0.0000 C   0  0  0  0  0  0  0  0  0  0  0  0
    1.4289    0.8250    0.0000 C   0  0  0  0  0  0  0  0  0  0  0  0
    2.1434    1.2375    0.0000 C   0  0  0  0  0  0  0  0  0  0  0  0
    2.8579    0.8250    0.0000 O   0  0  0  0  0  0  0  0  0  0  0  0
    3.5724    1.2375    0.0000 C   0  0  0  0  0  0  0  0  0  0  0  0
    4.2868    0.8250    0.0000 C   0  0  0  0  0  0  0  0  0  0  0  0
    5.0013    1.2375    0.0000 O   0  0  0  0  0  0  0  0  0  0  0  0
    5.7158    0.8250    0.0000 C   0  0  0  0  0  0  0  0  0  0  0  0
    6.4302    1.2375    0.0000 C   0  0  0  0  0  0  0  0  0  0  0  0
    5.7158    0.0000    0.0000 C   0  0  0  0  0  0  0  0  0  0  0  0
    1.4289    0.0000    0.0000 C   0  0  0  0  0  0  0  0  0  0  0  0
    0.7145   -0.4125    0.0000 C   0  0  0  0  0  0  0  0  0  0  0  0
  1  2  1  0  0  0  0
  2  3  1  0  0  0  0
  2  4  1  0  0  0  0
  4  5  1  0  0  0  0
  5  6  1  0  0  0  0
  6  7  1  6  0  0  0
  6  8  1  0  0  0  0
  8  9  1  0  0  0  0
  9 10  1  0  0  0  0
 10 11  4  0  0  0  0
 11 12  4  0  0  0  0
 12 13  4  0  0  0  0
 13 14  1  0  0  0  0
 14 15  1  0  0  0  0
 15 16  1  0  0  0  0
 16 17  1  0  0  0  0
 17 18  1  0  0  0  0
 18 19  1  0  0  0  0
 19 20  1  0  0  0  0
 19 21  1  0  0  0  0
 13 22  4  0  0  0  0
 22 23  4  0  0  0  0
 10 23  4  0  0  0  0
M  END

> <ChembankId>
1848

> <SMILES>
CC(C)NC[C@H](O)COc1ccc(COCCOC(C)C)cc1

> <InChI>
1/C18H31NO4/c1-14(2)19-11-17(20)13-23-18-7-5-16(6-8-18)12-21-9-10-22-15(3)4/h5-8,14-15,17,19-20H,9-13H2,1-4H3

$$$$
1851
  Marvin  11101114192D          

 22 25  0  0  1  0            999 V2000
    4.9875    0.8260    0.0000 C   0  0  0  0  0  0  0  0  0  0  0  0
    5.4000    0.1115    0.0000 C   0  0  0  0  0  0  0  0  0  0  0  0
    6.2205    0.0253    0.0000 N   0  0  0  0  0  0  0  0  0  0  0  0
    6.3920   -0.7817    0.0000 C   0  0  0  0  0  0  0  0  0  0  0  0
    5.6775   -1.1942    0.0000 C   0  0  0  0  0  0  0  0  0  0  0  0
    5.0645   -0.6422    0.0000 N   0  0  0  0  0  0  0  0  0  0  0  0
    4.2575   -0.8137    0.0000 C   0  0  0  0  0  0  0  0  0  0  0  0
    3.7054   -0.2006    0.0000 C   0  0  2  0  0  0  0  0  0  0  0  0
    3.9604    0.5840    0.0000 C   0  0  0  0  0  0  0  0  0  0  0  0
    3.4084    1.1971    0.0000 C   0  0  0  0  0  0  0  0  0  0  0  0
    2.6014    1.0256    0.0000 C   0  0  0  0  0  0  0  0  0  0  0  0
    2.3464    0.2410    0.0000 C   0  0  0  0  0  0  0  0  0  0  0  0
    2.8985   -0.3721    0.0000 C   0  0  0  0  0  0  0  0  0  0  0  0
    2.6435   -1.1567    0.0000 O   0  0  0  0  0  0  0  0  0  0  0  0
    1.5214    0.2410    0.0000 C   0  0  0  0  0  0  0  0  0  0  0  0
    0.9694   -0.3721    0.0000 C   0  0  0  0  0  0  0  0  0  0  0  0
    0.1624   -0.2006    0.0000 C   0  0  0  0  0  0  0  0  0  0  0  0
   -0.0925    0.5840    0.0000 C   0  0  0  0  0  0  0  0  0  0  0  0
    0.4595    1.1971    0.0000 C   0  0  0  0  0  0  0  0  0  0  0  0
    1.2665    1.0256    0.0000 C   0  0  0  0  0  0  0  0  0  0  0  0
    1.9339    1.5105    0.0000 N   0  0  0  0  0  0  0  0  0  0  0  0
    1.9339    2.3355    0.0000 C   0  0  0  0  0  0  0  0  0  0  0  0
  1  2  1  0  0  0  0
  2  3  4  0  0  0  0
  3  4  4  0  0  0  0
  4  5  4  0  0  0  0
  5  6  4  0  0  0  0
  2  6  4  0  0  0  0
  6  7  1  0  0  0  0
  8  7  1  1  0  0  0
  8  9  1  0  0  0  0
  9 10  1  0  0  0  0
 10 11  1  0  0  0  0
 11 12  4  0  0  0  0
 12 13  1  0  0  0  0
  8 13  1  0  0  0  0
 13 14  2  0  0  0  0
 12 15  4  0  0  0  0
 15 16  4  0  0  0  0
 16 17  4  0  0  0  0
 17 18  4  0  0  0  0
 18 19  4  0  0  0  0
 19 20  4  0  0  0  0
 15 20  4  0  0  0  0
 20 21  4  0  0  0  0
 11 21  4  0  0  0  0
 21 22  1  0  0  0  0
M  END

> <ChembankId>
1851

> <SMILES>
Cc1nccn1C[C@@H]2CCc3c(C2=O)c4ccccc4n3C

> <InChI>
1/C18H19N3O/c1-12-19-9-10-21(12)11-13-7-8-16-17(18(13)22)14-5-3-4-6-15(14)20(16)2/h3-6,9-10,13H,7-8,11H2,1-2H3

$$$$
1856
  Marvin  11101114192D          

 27 29  0  0  1  0            999 V2000
   -4.2868   -5.7750    0.0000 O   0  0  0  0  0  0  0  0  0  0  0  0
   -3.5724   -5.3625    0.0000 C   0  0  0  0  0  0  0  0  0  0  0  0
   -3.5724   -4.5375    0.0000 O   0  0  0  0  0  0  0  0  0  0  0  0
   -2.8579   -5.7750    0.0000 C   0  0  0  0  0  0  0  0  0  0  0  0
   -2.1434   -5.3625    0.0000 O   0  0  0  0  0  0  0  0  0  0  0  0
   -1.4289   -5.7750    0.0000 C   0  0  0  0  0  0  0  0  0  0  0  0
   -0.7145   -5.3625    0.0000 C   0  0  0  0  0  0  0  0  0  0  0  0
    0.0000   -5.7750    0.0000 N   0  0  0  0  0  0  0  0  0  0  0  0
    0.7145   -5.3625    0.0000 C   0  0  0  0  0  0  0  0  0  0  0  0
    1.4289   -5.7750    0.0000 C   0  0  0  0  0  0  0  0  0  0  0  0
    1.4289   -6.6000    0.0000 N   0  0  0  0  0  0  0  0  0  0  0  0
    0.7145   -7.0125    0.0000 C   0  0  0  0  0  0  0  0  0  0  0  0
    0.0000   -6.6000    0.0000 C   0  0  0  0  0  0  0  0  0  0  0  0
    2.1434   -7.0125    0.0000 C   0  0  1  0  0  0  0  0  0  0  0  0
    2.1434   -7.8375    0.0000 C   0  0  0  0  0  0  0  0  0  0  0  0
    2.8579   -8.2500    0.0000 C   0  0  0  0  0  0  0  0  0  0  0  0
    2.8579   -9.0750    0.0000 C   0  0  0  0  0  0  0  0  0  0  0  0
    2.1434   -9.4875    0.0000 C   0  0  0  0  0  0  0  0  0  0  0  0
    1.4289   -9.0750    0.0000 C   0  0  0  0  0  0  0  0  0  0  0  0
    1.4289   -8.2500    0.0000 C   0  0  0  0  0  0  0  0  0  0  0  0
    2.8579   -6.6000    0.0000 C   0  0  0  0  0  0  0  0  0  0  0  0
    2.8579   -5.7750    0.0000 C   0  0  0  0  0  0  0  0  0  0  0  0
    3.5724   -5.3625    0.0000 C   0  0  0  0  0  0  0  0  0  0  0  0
    4.2868   -5.7750    0.0000 C   0  0  0  0  0  0  0  0  0  0  0  0
    5.0013   -5.3625    0.0000 Cl  0  0  0  0  0  0  0  0  0  0  0  0
    4.2868   -6.6000    0.0000 C   0  0  0  0  0  0  0  0  0  0  0  0
    3.5724   -7.0125    0.0000 C   0  0  0  0  0  0  0  0  0  0  0  0
  1  2  1  0  0  0  0
  2  3  2  0  0  0  0
  2  4  1  0  0  0  0
  4  5  1  0  0  0  0
  5  6  1  0  0  0  0
  6  7  1  0  0  0  0
  7  8  1  0  0  0  0
  8  9  1  0  0  0  0
  9 10  1  0  0  0  0
 10 11  1  0  0  0  0
 11 12  1  0  0  0  0
 12 13  1  0  0  0  0
  8 13  1  0  0  0  0
 14 11  1  6  0  0  0
 14 15  1  0  0  0  0
 15 16  4  0  0  0  0
 16 17  4  0  0  0  0
 17 18  4  0  0  0  0
 18 19  4  0  0  0  0
 19 20  4  0  0  0  0
 15 20  4  0  0  0  0
 14 21  1  0  0  0  0
 21 22  4  0  0  0  0
 22 23  4  0  0  0  0
 23 24  4  0  0  0  0
 24 25  1  0  0  0  0
 24 26  4  0  0  0  0
 26 27  4  0  0  0  0
 21 27  4  0  0  0  0
M  END

> <ChembankId>
1856

> <SMILES>
OC(=O)COCCN1CCN(CC1)[C@@H](c2ccccc2)c3ccc(Cl)cc3

> <InChI>
1/C21H25ClN2O3/c22-19-8-6-18(7-9-19)21(17-4-2-1-3-5-17)24-12-10-23(11-13-24)14-15-27-16-20(25)26/h1-9,21H,10-16H2,(H,25,26)

$$$$
1944
  Marvin  11101114192D          

 25 24  0  0  0  0            999 V2000
    3.9039    5.9961    0.0000 C   0  0  0  0  0  0  0  0  0  0  0  0
    3.1895    5.5836    0.0000 C   0  0  0  0  0  0  0  0  0  0  0  0
    3.1895    4.7586    0.0000 C   0  0  0  0  0  0  0  0  0  0  0  0
    2.4750    4.3461    0.0000 C   0  0  0  0  0  0  0  0  0  0  0  0
    2.4750    3.5211    0.0000 C   0  0  0  0  0  0  0  0  0  0  0  0
    1.7605    3.1086    0.0000 C   0  0  0  0  0  0  0  0  0  0  0  0
    1.7605    2.2836    0.0000 C   0  0  0  0  0  0  0  0  0  0  0  0
    2.4750    1.8711    0.0000 C   0  0  0  0  0  0  0  0  0  0  0  0
    2.4750    1.0461    0.0000 C   0  0  0  0  0  0  0  0  0  0  0  0
    1.7605    0.6336    0.0000 C   0  0  0  0  0  0  0  0  0  0  0  0
    1.0461    1.0461    0.0000 C   0  0  0  0  0  0  0  0  0  0  0  0
    0.3316    0.6336    0.0000 C   0  0  0  0  0  0  0  0  0  0  0  0
    0.3316   -0.1914    0.0000 C   0  0  0  0  0  0  0  0  0  0  0  0
    1.0461   -0.6039    0.0000 C   0  0  0  0  0  0  0  0  0  0  0  0
    1.0461   -1.4289    0.0000 C   0  0  0  0  0  0  0  0  0  0  0  0
    1.7605   -1.8414    0.0000 C   0  0  0  0  0  0  0  0  0  0  0  0
    2.4750   -1.4289    0.0000 C   0  0  0  0  0  0  0  0  0  0  0  0
    3.1895   -1.8414    0.0000 C   0  0  0  0  0  0  0  0  0  0  0  0
    3.9039   -1.4289    0.0000 C   0  0  0  0  0  0  0  0  0  0  0  0
    4.6184   -1.8414    0.0000 C   0  0  0  0  0  0  0  0  0  0  0  0
    4.6184   -2.6664    0.0000 O   0  0  0  0  0  0  0  0  0  0  0  0
    5.3329   -1.4289    0.0000 C   0  0  0  0  0  0  0  0  0  0  0  0
    6.0474   -1.0164    0.0000 F   0  0  0  0  0  0  0  0  0  0  0  0
    5.7454   -2.1434    0.0000 F   0  0  0  0  0  0  0  0  0  0  0  0
    4.9204   -0.7145    0.0000 F   0  0  0  0  0  0  0  0  0  0  0  0
  1  2  1  0  0  0  0
  2  3  1  0  0  0  0
  3  4  1  0  0  0  0
  4  5  1  0  0  0  0
  5  6  1  0  0  0  0
  6  7  2  0  0  0  0
  7  8  1  0  0  0  0
  8  9  1  0  0  0  0
  9 10  2  0  0  0  0
 10 11  1  0  0  0  0
 11 12  1  0  0  0  0
 12 13  2  0  0  0  0
 13 14  1  0  0  0  0
 14 15  1  0  0  0  0
 15 16  2  0  0  0  0
 16 17  1  0  0  0  0
 17 18  1  0  0  0  0
 18 19  1  0  0  0  0
 19 20  1  0  0  0  0
 20 21  2  0  0  0  0
 20 22  1  0  0  0  0
 22 23  1  0  0  0  0
 22 24  1  0  0  0  0
 22 25  1  0  0  0  0
M  END

> <ChembankId>
1944

> <SMILES>
CCCCC/C=C\C/C=C\C/C=C\C/C=C\CCCC(=O)C(F)(F)F

> <InChI>
1/C21H31F3O/c1-2-3-4-5-6-7-8-9-10-11-12-13-14-15-16-17-18-19-20(25)21(22,23)24/h6-7,9-10,12-13,15-16H,2-5,8,11,14,17-19H2,1H3

$$$$
2155
  Marvin  11101114192D          

 59 61  0  0  1  0            999 V2000
   -6.2461   -0.6320    0.0000 C   0  0  0  0  0  0  0  0  0  0  0  0
   -6.2461   -1.4570    0.0000 C   0  0  0  0  0  0  0  0  0  0  0  0
   -5.5316   -1.8695    0.0000 C   0  0  0  0  0  0  0  0  0  0  0  0
   -4.8171   -1.4570    0.0000 O   0  0  0  0  0  0  0  0  0  0  0  0
   -5.5316   -2.6945    0.0000 O   0  0  0  0  0  0  0  0  0  0  0  0
   -4.8171   -3.1070    0.0000 C   0  0  1  0  0  0  0  0  0  0  0  0
   -4.8171   -3.9320    0.0000 C   0  0  0  0  0  0  0  0  0  0  0  0
   -5.5316   -4.3445    0.0000 C   0  0  0  0  0  0  0  0  0  0  0  0
   -4.1027   -4.3445    0.0000 O   0  0  0  0  0  0  0  0  0  0  0  0
   -3.3882   -3.9320    0.0000 C   0  0  2  0  0  0  0  0  0  0  0  0
   -3.1060   -4.7072    0.0000 C   0  0  0  0  0  0  0  0  0  0  0  0
   -3.3882   -3.1070    0.0000 C   0  0  0  0  0  0  0  0  0  0  0  0
   -4.1027   -2.6945    0.0000 C   0  0  1  0  0  0  0  0  0  0  0  0
   -3.7153   -1.9661    0.0000 C   0  0  0  0  0  0  0  0  0  0  0  0
   -4.4900   -1.9661    0.0000 O   0  0  0  0  0  0  0  0  0  0  0  0
   -2.5757   -3.7887    0.0000 O   0  0  0  0  0  0  0  0  0  0  0  0
   -2.0454   -4.4207    0.0000 C   0  0  2  0  0  0  0  0  0  0  0  0
   -1.2330   -4.2775    0.0000 C   0  0  0  0  0  0  0  0  0  0  0  0
   -0.9508   -3.5022    0.0000 C   0  0  0  0  0  0  0  0  0  0  0  0
   -0.7027   -4.9094    0.0000 O   0  0  0  0  0  0  0  0  0  0  0  0
   -0.9848   -5.6847    0.0000 C   0  0  1  0  0  0  0  0  0  0  0  0
   -0.4545   -6.3167    0.0000 C   0  0  0  0  0  0  0  0  0  0  0  0
   -0.7367   -7.0919    0.0000 O   0  0  0  0  0  0  0  0  0  0  0  0
   -0.2064   -7.7239    0.0000 C   0  0  2  0  0  0  0  0  0  0  0  0
    0.0758   -6.9487    0.0000 C   0  0  1  0  0  0  0  0  0  0  0  0
    0.0182   -6.1257    0.0000 C   0  0  0  0  0  0  0  0  0  0  0  0
    0.8882   -6.8054    0.0000 C   0  0  1  0  0  0  0  0  0  0  0  0
    1.4185   -7.4374    0.0000 C   0  0  0  0  0  0  0  0  0  0  0  0
    1.1364   -8.2126    0.0000 C   0  0  0  0  0  0  0  0  0  0  0  0
    0.3239   -8.3559    0.0000 O   0  0  0  0  0  0  0  0  0  0  0  0
    1.6667   -8.8446    0.0000 O   0  0  0  0  0  0  0  0  0  0  0  0
    1.3845   -9.6199    0.0000 C   0  0  2  0  0  0  0  0  0  0  0  0
    0.5720   -9.7631    0.0000 C   0  0  0  0  0  0  0  0  0  0  0  0
    1.9148  -10.2519    0.0000 C   0  0  0  0  0  0  0  0  0  0  0  0
    1.6326  -11.0271    0.0000 C   0  0  0  0  0  0  0  0  0  0  0  0
    0.8202  -11.1704    0.0000 C   0  0  0  0  0  0  0  0  0  0  0  0
    0.2899  -10.5384    0.0000 C   0  0  0  0  0  0  0  0  0  0  0  0
   -0.5226  -10.6816    0.0000 C   0  0  0  0  0  0  0  0  0  0  0  0
   -1.0529  -10.0496    0.0000 C   0  0  2  0  0  0  0  0  0  0  0  0
   -1.8654  -10.1929    0.0000 O   0  0  0  0  0  0  0  0  0  0  0  0
   -0.7707   -9.2744    0.0000 C   0  0  2  0  0  0  0  0  0  0  0  0
    0.0417   -9.1311    0.0000 C   0  0  0  0  0  0  0  0  0  0  0  0
   -1.3010   -8.6424    0.0000 C   0  0  0  0  0  0  0  0  0  0  0  0
   -1.0189   -7.8672    0.0000 C   0  0  2  0  0  0  0  0  0  0  0  0
   -1.5492   -7.2352    0.0000 C   0  0  0  0  0  0  0  0  0  0  0  0
   -2.3616   -7.3784    0.0000 C   0  0  0  0  0  0  0  0  0  0  0  0
   -2.6438   -8.1537    0.0000 O   0  0  0  0  0  0  0  0  0  0  0  0
   -2.8919   -6.7465    0.0000 C   0  0  0  0  0  0  0  0  0  0  0  0
    1.1704   -6.0302    0.0000 O   0  0  0  0  0  0  0  0  0  0  0  0
    1.9829   -5.8869    0.0000 C   0  0  0  0  0  0  0  0  0  0  0  0
    2.5132   -6.5189    0.0000 O   0  0  0  0  0  0  0  0  0  0  0  0
    2.2650   -5.1116    0.0000 C   0  0  0  0  0  0  0  0  0  0  0  0
    3.0775   -4.9684    0.0000 C   0  0  0  0  0  0  0  0  0  0  0  0
   -1.7973   -5.8279    0.0000 C   0  0  2  0  0  0  0  0  0  0  0  0
   -2.0795   -6.6032    0.0000 O   0  0  0  0  0  0  0  0  0  0  0  0
   -2.3276   -5.1960    0.0000 C   0  0  2  0  0  0  0  0  0  0  0  0
   -3.1401   -5.3392    0.0000 N   0  0  0  0  0  0  0  0  0  0  0  0
   -3.6704   -4.7072    0.0000 C   0  0  0  0  0  0  0  0  0  0  0  0
   -3.4222   -6.1145    0.0000 C   0  0  0  0  0  0  0  0  0  0  0  0
  1  2  1  0  0  0  0
  2  3  1  0  0  0  0
  3  4  2  0  0  0  0
  3  5  1  0  0  0  0
  6  5  1  6  0  0  0
  6  7  1  0  0  0  0
  7  8  1  0  0  0  0
  7  9  1  0  0  0  0
  9 10  1  0  0  0  0
 10 11  1  1  0  0  0
 10 12  1  0  0  0  0
 12 13  1  0  0  0  0
  6 13  1  0  0  0  0
 13 14  1  6  0  0  0
 13 15  1  1  0  0  0
 10 16  1  6  0  0  0
 17 16  1  6  0  0  0
 17 18  1  0  0  0  0
 18 19  1  0  0  0  0
 18 20  1  0  0  0  0
 20 21  1  0  0  0  0
 21 22  1  1  0  0  0
 22 23  1  0  0  0  0
 24 23  1  1  0  0  0
 24 25  1  0  0  0  0
 25 26  1  1  0  0  0
 25 27  1  0  0  0  0
 27 28  1  0  0  0  0
 28 29  1  0  0  0  0
 29 30  2  0  0  0  0
 29 31  1  0  0  0  0
 31 32  1  0  0  0  0
 32 33  1  1  0  0  0
 32 34  1  0  0  0  0
 35 34  1  4  0  0  0
 35 36  2  0  0  0  0
 37 36  1  4  0  0  0
 37 38  2  0  0  0  0
 38 39  1  0  0  0  0
 39 40  1  6  0  0  0
 39 41  1  0  0  0  0
 41 42  1  1  0  0  0
 41 43  1  0  0  0  0
 43 44  1  0  0  0  0
 24 44  1  0  0  0  0
 44 45  1  6  0  0  0
 45 46  1  0  0  0  0
 46 47  2  0  0  0  0
 46 48  1  0  0  0  0
 27 49  1  6  0  0  0
 49 50  1  0  0  0  0
 50 51  2  0  0  0  0
 50 52  1  0  0  0  0
 52 53  1  0  0  0  0
 21 54  1  0  0  0  0
 54 55  1  6  0  0  0
 54 56  1  0  0  0  0
 17 56  1  0  0  0  0
 56 57  1  6  0  0  0
 57 58  1  0  0  0  0
 57 59  1  0  0  0  0
M  END

> <ChembankId>
2155

> <SMILES>
CCC(=O)O[C@H]1C(C)O[C@](C)(C[C@]1(C)O)O[C@@H]2C(C)O[C@@H](CO[C@@H]3[C@@H](C)[C@@H](CC(=O)O[C@H](C)CC=CC=C[C@H](O)[C@H](C)C[C@@H]3CC(=O)C)OC(=O)CC)[C@H](O)[C@@H]2N(C)C

> <InChI>
1/C44H73NO14/c1-13-35(48)56-33-22-37(50)54-27(5)18-16-15-17-19-32(47)25(3)20-31(21-26(4)46)40(28(33)6)53-23-34-39(51)38(45(11)12)41(29(7)55-34)59-44(10)24-43(9,52)42(30(8)58-44)57-36(49)14-2/h15-17,19,25,27-34,38-42,47,51-52H,13-14,18,20-24H2,1-12H3

$$$$
2243
  Marvin  11101114192D          

 48 51  0  0  1  0            999 V2000
    3.0835    3.4987    0.0000 C   0  0  0  0  0  0  0  0  0  0  0  0
    3.8514    3.1974    0.0000 C   0  0  0  0  0  0  0  0  0  0  0  0
    3.9745    2.3816    0.0000 O   0  0  0  0  0  0  0  0  0  0  0  0
    4.7425    2.0802    0.0000 C   0  0  1  0  0  0  0  0  0  0  0  0
    4.3123    1.3762    0.0000 C   0  0  0  0  0  0  0  0  0  0  0  0
    5.3611    1.5344    0.0000 O   0  0  0  0  0  0  0  0  0  0  0  0
    5.1977    0.7257    0.0000 C   0  0  0  0  0  0  0  0  0  0  0  0
    5.9797    0.9886    0.0000 C   0  0  0  0  0  0  0  0  0  0  0  0
    6.5983    0.4427    0.0000 C   0  0  1  0  0  0  0  0  0  0  0  0
    6.4349   -0.3659    0.0000 O   0  0  0  0  0  0  0  0  0  0  0  0
    7.0535   -0.9118    0.0000 C   0  0  2  0  0  0  0  0  0  0  0  0
    7.6721   -1.4576    0.0000 O   0  0  0  0  0  0  0  0  0  0  0  0
    7.8355   -0.6490    0.0000 C   0  0  0  0  0  0  0  0  0  0  0  0
    7.9989    0.1597    0.0000 C   0  0  1  0  0  0  0  0  0  0  0  0
    8.7810    0.4225    0.0000 O   0  0  0  0  0  0  0  0  0  0  0  0
    7.3803    0.7055    0.0000 C   0  0  2  0  0  0  0  0  0  0  0  0
    7.5437    1.5142    0.0000 C   0  0  0  0  0  0  0  0  0  0  0  0
    6.9251    2.0600    0.0000 O   0  0  0  0  0  0  0  0  0  0  0  0
    8.3257    1.7770    0.0000 O   0  0  0  0  0  0  0  0  0  0  0  0
    6.8901   -1.7204    0.0000 C   0  0  0  0  0  0  0  0  0  0  0  0
    6.1081   -1.9832    0.0000 C   0  0  2  0  0  0  0  0  0  0  0  0
    5.9447   -2.7919    0.0000 O   0  0  0  0  0  0  0  0  0  0  0  0
    5.4895   -1.4374    0.0000 C   0  0  0  0  0  0  0  0  0  0  0  0
    4.7075   -1.7002    0.0000 C   0  0  2  0  0  0  0  0  0  0  0  0
    3.9254   -1.9630    0.0000 O   0  0  0  0  0  0  0  0  0  0  0  0
    4.0888   -1.1544    0.0000 C   0  0  1  0  0  0  0  0  0  0  0  0
    3.3068   -1.4172    0.0000 C   0  0  0  0  0  0  0  0  0  0  0  0
    2.6882   -0.8713    0.0000 C   0  0  0  0  0  0  0  0  0  0  0  0
    1.9062   -1.1342    0.0000 C   0  0  0  0  0  0  0  0  0  0  0  0
    1.7428   -1.9428    0.0000 O   0  0  0  0  0  0  0  0  0  0  0  0
    1.2876   -0.5883    0.0000 O   0  0  0  0  0  0  0  0  0  0  0  0
    0.5056   -0.8511    0.0000 C   0  0  2  0  0  0  0  0  0  0  0  0
    0.3421   -1.6598    0.0000 C   0  0  0  0  0  0  0  0  0  0  0  0
   -0.1131   -0.3053    0.0000 C   0  0  0  0  0  0  0  0  0  0  0  0
    0.0503    0.5034    0.0000 C   0  0  0  0  0  0  0  0  0  0  0  0
    0.8324    0.7662    0.0000 C   0  0  0  0  0  0  0  0  0  0  0  0
    0.9958    1.5748    0.0000 C   0  0  0  0  0  0  0  0  0  0  0  0
    1.7778    1.8376    0.0000 C   0  0  0  0  0  0  0  0  0  0  0  0
    2.3964    1.2918    0.0000 C   0  0  0  0  0  0  0  0  0  0  0  0
    3.1784    1.5546    0.0000 C   0  0  0  0  0  0  0  0  0  0  0  0
    3.7970    1.0088    0.0000 C   0  0  0  0  0  0  0  0  0  0  0  0
    4.5791    1.2716    0.0000 C   0  0  0  0  0  0  0  0  0  0  0  0
    5.3874    2.5947    0.0000 C   0  0  1  0  0  0  0  0  0  0  0  0
    6.1554    2.2933    0.0000 O   0  0  0  0  0  0  0  0  0  0  0  0
    5.2644    3.4104    0.0000 C   0  0  2  0  0  0  0  0  0  0  0  0
    5.9094    3.9249    0.0000 N   0  0  0  0  0  0  0  0  0  0  0  0
    4.4964    3.7118    0.0000 C   0  0  2  0  0  0  0  0  0  0  0  0
    4.3734    4.5276    0.0000 O   0  0  0  0  0  0  0  0  0  0  0  0
  1  2  1  0  0  0  0
  2  3  1  0  0  0  0
  3  4  1  0  0  0  0
  4  5  1  1  0  0  0
  4  6  1  6  0  0  0
  6  7  1  0  0  0  0
  7  8  1  0  0  0  0
  8  9  1  0  0  0  0
  9 10  1  6  0  0  0
 10 11  1  0  0  0  0
 11 12  1  1  0  0  0
 11 13  1  0  0  0  0
 13 14  1  0  0  0  0
 14 15  1  6  0  0  0
 14 16  1  0  0  0  0
  9 16  1  0  0  0  0
 16 17  1  1  0  0  0
 17 18  2  0  0  0  0
 17 19  1  0  0  0  0
 11 20  1  0  0  0  0
 20 21  1  0  0  0  0
 21 22  1  6  0  0  0
 21 23  1  0  0  0  0
 24 23  1  6  0  0  0
 24 25  1  0  0  0  0
 26 25  1  6  0  0  0
 24 26  1  0  0  0  0
 26 27  1  0  0  0  0
 27 28  2  0  0  0  0
 28 29  1  4  0  0  0
 29 30  2  0  0  0  0
 29 31  1  0  0  0  0
 31 32  1  0  0  0  0
 32 33  1  6  0  0  0
 32 34  1  0  0  0  0
 35 34  1  4  0  0  0
 35 36  2  0  0  0  0
 37 36  1  4  0  0  0
 37 38  2  0  0  0  0
 39 38  1  4  0  0  0
 39 40  2  0  0  0  0
 41 40  1  4  0  0  0
 41 42  2  0  0  0  0
  7 42  1  0  0  0  0
  4 43  1  0  0  0  0
 43 44  1  6  0  0  0
 43 45  1  0  0  0  0
 45 46  1  1  0  0  0
 45 47  1  0  0  0  0
  2 47  1  0  0  0  0
 47 48  1  1  0  0  0
M  END

> <ChembankId>
2243

> <SMILES>
CC1O[C@@](C)(OC2C[C@H]3O[C@](O)(C[C@@H](O)[C@@H]3C(=O)O)C[C@H](O)C[C@@H]4O[C@H]4C=CC(=O)O[C@H](C)CC=CC=CC=CC=C2)[C@@H](O)[C@H](N)[C@@H]1O

> <InChI>
1/C34H49NO13/c1-19-11-9-7-5-4-6-8-10-12-22(47-33(3)31(40)29(35)30(39)20(2)46-33)16-26-28(32(41)42)23(37)18-34(43,48-26)17-21(36)15-25-24(45-25)13-14-27(38)44-19/h4-10,12-14,19-26,28-31,36-37,39-40,43H,11,15-18,35H2,1-3H3,(H,41,42)

$$$$
2341
  Marvin  11101114192D          

 19 20  0  0  0  0            999 V2000
    0.0000    0.0000    0.0000 C   0  0  0  0  0  0  0  0  0  0  0  0
    0.7145   -0.4125    0.0000 C   0  0  0  0  0  0  0  0  0  0  0  0
    1.4289    0.0000    0.0000 C   0  0  0  0  0  0  0  0  0  0  0  0
    1.4289    0.8250    0.0000 C   0  0  0  0  0  0  0  0  0  0  0  0
    2.1434   -0.4125    0.0000 C   0  0  0  0  0  0  0  0  0  0  0  0
    2.8579    0.0000    0.0000 O   0  0  0  0  0  0  0  0  0  0  0  0
    3.5724   -0.4125    0.0000 C   0  0  0  0  0  0  0  0  0  0  0  0
    3.8545    0.3627    0.0000 C   0  0  0  0  0  0  0  0  0  0  0  0
    4.3848   -0.5558    0.0000 C   0  0  0  0  0  0  0  0  0  0  0  0
    4.9151    0.0762    0.0000 C   0  0  0  0  0  0  0  0  0  0  0  0
    5.7276   -0.0670    0.0000 O   0  0  0  0  0  0  0  0  0  0  0  0
    4.6330    0.8515    0.0000 O   0  0  0  0  0  0  0  0  0  0  0  0
    3.5724   -1.2375    0.0000 C   0  0  0  0  0  0  0  0  0  0  0  0
    2.8579   -1.6500    0.0000 C   0  0  0  0  0  0  0  0  0  0  0  0
    2.1434   -1.2375    0.0000 C   0  0  0  0  0  0  0  0  0  0  0  0
    1.4289   -1.6500    0.0000 C   0  0  0  0  0  0  0  0  0  0  0  0
    1.4289   -2.4750    0.0000 C   0  0  0  0  0  0  0  0  0  0  0  0
    0.7145   -1.2375    0.0000 C   0  0  0  0  0  0  0  0  0  0  0  0
    0.0000   -1.6500    0.0000 O   0  0  0  0  0  0  0  0  0  0  0  0
  1  2  1  0  0  0  0
  2  3  4  0  0  0  0
  3  4  1  0  0  0  0
  3  5  4  0  0  0  0
  5  6  1  0  0  0  0
  6  7  1  0  0  0  0
  7  8  1  0  0  0  0
  7  9  1  0  0  0  0
  9 10  1  0  0  0  0
 10 11  2  0  0  0  0
 10 12  1  0  0  0  0
  7 13  1  0  0  0  0
 13 14  1  0  0  0  0
 14 15  1  0  0  0  0
  5 15  4  0  0  0  0
 15 16  4  0  0  0  0
 16 17  1  0  0  0  0
 16 18  4  0  0  0  0
  2 18  4  0  0  0  0
 18 19  1  0  0  0  0
M  END

> <ChembankId>
2341

> <SMILES>
Cc1c(C)c2OC(C)(CC(=O)O)CCc2c(C)c1O

> <InChI>
1/C15H20O4/c1-8-9(2)14-11(10(3)13(8)18)5-6-15(4,19-14)7-12(16)17/h18H,5-7H2,1-4H3,(H,16,17)

$$$$
2442
  Marvin  11101114192D          

 12 12  0  0  0  0            999 V2000
    3.5724   -0.4125    0.0000 C   0  0  0  0  0  0  0  0  0  0  0  0
    2.8579   -0.0000    0.0000 C   0  0  0  0  0  0  0  0  0  0  0  0
    2.8579    0.8250    0.0000 N   0  0  0  0  0  0  0  0  0  0  0  0
    2.1434   -0.4125    0.0000 C   0  0  0  0  0  0  0  0  0  0  0  0
    2.1434   -1.2375    0.0000 O   0  0  0  0  0  0  0  0  0  0  0  0
    1.4289   -0.0000    0.0000 C   0  0  0  0  0  0  0  0  0  0  0  0
    0.7145   -0.4125    0.0000 C   0  0  0  0  0  0  0  0  0  0  0  0
    0.0000   -0.0000    0.0000 C   0  0  0  0  0  0  0  0  0  0  0  0
    0.0000    0.8250    0.0000 C   0  0  0  0  0  0  0  0  0  0  0  0
    0.7145    1.2375    0.0000 C   0  0  0  0  0  0  0  0  0  0  0  0
    0.7145    2.0625    0.0000 O   0  0  0  0  0  0  0  0  0  0  0  0
    1.4289    0.8250    0.0000 C   0  0  0  0  0  0  0  0  0  0  0  0
  1  2  1  0  0  0  0
  2  3  1  0  0  0  0
  2  4  1  0  0  0  0
  4  5  1  0  0  0  0
  4  6  1  0  0  0  0
  6  7  4  0  0  0  0
  7  8  4  0  0  0  0
  8  9  4  0  0  0  0
  9 10  4  0  0  0  0
 10 11  1  0  0  0  0
 10 12  4  0  0  0  0
  6 12  4  0  0  0  0
M  END

> <ChembankId>
2442

> <SMILES>
CC(N)C(O)c1cccc(O)c1

> <InChI>
1/C9H13NO2/c1-6(10)9(12)7-3-2-4-8(11)5-7/h2-6,9,11-12H,10H2,1H3

$$$$
2444
  Marvin  11101114192D          

 43 49  0  0  1  0            999 V2000
    0.7566    2.5948    0.0000 C   0  0  0  0  0  0  0  0  0  0  0  0
    1.5636    2.4233    0.0000 C   0  0  0  0  0  0  0  0  0  0  0  0
    1.8185    1.6387    0.0000 C   0  0  0  0  0  0  0  0  0  0  0  0
    2.6255    1.4672    0.0000 C   0  0  0  0  0  0  0  0  0  0  0  0
    3.2929    1.9521    0.0000 C   0  0  0  0  0  0  0  0  0  0  0  0
    3.9604    1.4672    0.0000 N   0  0  0  0  0  0  0  0  0  0  0  0
    3.7054    0.6825    0.0000 C   0  0  0  0  0  0  0  0  0  0  0  0
    4.2575    0.0694    0.0000 C   0  0  0  0  0  0  0  0  0  0  0  0
    5.0645    0.2410    0.0000 C   0  0  0  0  0  0  0  0  0  0  0  0
    5.3194    1.0256    0.0000 C   0  0  0  0  0  0  0  0  0  0  0  0
    6.1264    1.1971    0.0000 C   0  0  0  0  0  0  0  0  0  0  0  0
    6.6784    0.5840    0.0000 O   0  0  0  0  0  0  0  0  0  0  0  0
    6.4235   -0.2006    0.0000 C   0  0  0  0  0  0  0  0  0  0  0  0
    6.9755   -0.8137    0.0000 O   0  0  0  0  0  0  0  0  0  0  0  0
    5.6165   -0.3721    0.0000 C   0  0  2  0  0  0  0  0  0  0  0  0
    5.7597   -1.1846    0.0000 O   0  0  0  0  0  0  0  0  0  0  0  0
    5.0230   -0.9452    0.0000 C   0  0  0  0  0  0  0  0  0  0  0  0
    4.2300   -0.7178    0.0000 C   0  0  0  0  0  0  0  0  0  0  0  0
    4.7674    1.6387    0.0000 C   0  0  0  0  0  0  0  0  0  0  0  0
    5.0223    2.4233    0.0000 O   0  0  0  0  0  0  0  0  0  0  0  0
    2.8804    0.6825    0.0000 C   0  0  0  0  0  0  0  0  0  0  0  0
    2.3284    0.0694    0.0000 N   0  0  0  0  0  0  0  0  0  0  0  0
    1.5214    0.2410    0.0000 C   0  0  0  0  0  0  0  0  0  0  0  0
    0.9694   -0.3721    0.0000 C   0  0  0  0  0  0  0  0  0  0  0  0
    0.1624   -0.2006    0.0000 C   0  0  0  0  0  0  0  0  0  0  0  0
   -0.0925    0.5840    0.0000 C   0  0  0  0  0  0  0  0  0  0  0  0
   -0.8995    0.7556    0.0000 O   0  0  0  0  0  0  0  0  0  0  0  0
   -1.4515    0.1425    0.0000 C   0  0  0  0  0  0  0  0  0  0  0  0
   -1.1966   -0.6422    0.0000 O   0  0  0  0  0  0  0  0  0  0  0  0
   -2.2585    0.3140    0.0000 N   0  0  0  0  0  0  0  0  0  0  0  0
   -2.8105   -0.2991    0.0000 C   0  0  0  0  0  0  0  0  0  0  0  0
   -3.6175   -0.1276    0.0000 C   0  0  0  0  0  0  0  0  0  0  0  0
   -3.8724    0.6570    0.0000 C   0  0  0  0  0  0  0  0  0  0  0  0
   -3.3204    1.2701    0.0000 C   0  0  0  0  0  0  0  0  0  0  0  0
   -2.5134    1.0986    0.0000 C   0  0  0  0  0  0  0  0  0  0  0  0
   -4.6794    0.8286    0.0000 N   0  0  0  0  0  0  0  0  0  0  0  0
   -5.2314    0.2155    0.0000 C   0  0  0  0  0  0  0  0  0  0  0  0
   -6.0384    0.3870    0.0000 C   0  0  0  0  0  0  0  0  0  0  0  0
   -6.2933    1.1716    0.0000 C   0  0  0  0  0  0  0  0  0  0  0  0
   -5.7413    1.7847    0.0000 C   0  0  0  0  0  0  0  0  0  0  0  0
   -4.9343    1.6132    0.0000 C   0  0  0  0  0  0  0  0  0  0  0  0
    0.4595    1.1971    0.0000 C   0  0  0  0  0  0  0  0  0  0  0  0
    1.2665    1.0256    0.0000 C   0  0  0  0  0  0  0  0  0  0  0  0
  1  2  1  0  0  0  0
  2  3  1  0  0  0  0
  3  4  4  0  0  0  0
  4  5  1  0  0  0  0
  5  6  1  0  0  0  0
  6  7  4  0  0  0  0
  7  8  4  0  0  0  0
  8  9  4  0  0  0  0
  9 10  4  0  0  0  0
 10 11  1  0  0  0  0
 11 12  1  0  0  0  0
 12 13  1  0  0  0  0
 13 14  2  0  0  0  0
 13 15  1  0  0  0  0
  9 15  1  0  0  0  0
 15 16  1  6  0  0  0
 15 17  1  1  0  0  0
 17 18  1  0  0  0  0
 10 19  4  0  0  0  0
  6 19  4  0  0  0  0
 19 20  2  0  0  0  0
  7 21  1  0  0  0  0
  4 21  4  0  0  0  0
 21 22  4  0  0  0  0
 22 23  4  0  0  0  0
 23 24  4  0  0  0  0
 24 25  4  0  0  0  0
 25 26  4  0  0  0  0
 26 27  1  0  0  0  0
 27 28  1  0  0  0  0
 28 29  2  0  0  0  0
 28 30  1  0  0  0  0
 30 31  1  0  0  0  0
 31 32  1  0  0  0  0
 32 33  1  0  0  0  0
 33 34  1  0  0  0  0
 34 35  1  0  0  0  0
 30 35  1  0  0  0  0
 33 36  1  0  0  0  0
 36 37  1  0  0  0  0
 37 38  1  0  0  0  0
 38 39  1  0  0  0  0
 39 40  1  0  0  0  0
 40 41  1  0  0  0  0
 36 41  1  0  0  0  0
 26 42  4  0  0  0  0
 42 43  4  0  0  0  0
  3 43  4  0  0  0  0
 23 43  4  0  0  0  0
M  END

> <ChembankId>
2444

> <SMILES>
CCc1c2Cn3c(cc4c(COC(=O)[C@@]4(O)CC)c3=O)-c2nc5ccc(OC(=O)N6CCC(CC6)N7CCCCC7)cc15

> <InChI>
1/C33H38N4O6/c1-3-22-23-16-21(43-32(40)36-14-10-20(11-15-36)35-12-6-5-7-13-35)8-9-27(23)34-29-24(22)18-37-28(29)17-26-25(30(37)38)19-42-31(39)33(26,41)4-2/h8-9,16-17,20,41H,3-7,10-15,18-19H2,1-2H3

$$$$
3057
  Marvin  11101114192D          

 27 30  0  0  0  0            999 V2000
   -0.7145   -2.8875    0.0000 C   0  0  0  0  0  0  0  0  0  0  0  0
    0.0000   -2.4750    0.0000 C   0  0  0  0  0  0  0  0  0  0  0  0
    0.7145   -2.8875    0.0000 S   0  0  0  0  0  0  0  0  0  0  0  0
    1.4289   -2.4750    0.0000 C   0  0  0  0  0  0  0  0  0  0  0  0
    1.4289   -1.6500    0.0000 C   0  0  0  0  0  0  0  0  0  0  0  0
    2.1434   -1.2375    0.0000 C   0  0  0  0  0  0  0  0  0  0  0  0
    2.8579   -1.6500    0.0000 C   0  0  0  0  0  0  0  0  0  0  0  0
    3.5724   -1.2375    0.0000 S   0  0  0  0  0  0  0  0  0  0  0  0
    4.2868   -1.6500    0.0000 C   0  0  0  0  0  0  0  0  0  0  0  0
    5.0013   -1.2375    0.0000 C   0  0  0  0  0  0  0  0  0  0  0  0
    5.7158   -1.6500    0.0000 C   0  0  0  0  0  0  0  0  0  0  0  0
    5.7158   -2.4750    0.0000 C   0  0  0  0  0  0  0  0  0  0  0  0
    5.0013   -2.8875    0.0000 C   0  0  0  0  0  0  0  0  0  0  0  0
    4.2868   -2.4750    0.0000 C   0  0  0  0  0  0  0  0  0  0  0  0
    3.5724   -2.8875    0.0000 N   0  0  0  0  0  0  0  0  0  0  0  0
    3.5724   -3.7125    0.0000 C   0  0  0  0  0  0  0  0  0  0  0  0
    2.8579   -4.1250    0.0000 C   0  0  0  0  0  0  0  0  0  0  0  0
    2.8579   -4.9500    0.0000 C   0  0  0  0  0  0  0  0  0  0  0  0
    3.5724   -5.3625    0.0000 N   0  0  0  0  0  0  0  0  0  0  0  0
    4.2868   -4.9500    0.0000 C   0  0  0  0  0  0  0  0  0  0  0  0
    5.0013   -5.3625    0.0000 C   0  0  0  0  0  0  0  0  0  0  0  0
    5.0013   -6.1875    0.0000 N   0  0  0  0  0  0  0  0  0  0  0  0
    5.7158   -6.6000    0.0000 C   0  0  0  0  0  0  0  0  0  0  0  0
    4.2868   -6.6000    0.0000 C   0  0  0  0  0  0  0  0  0  0  0  0
    3.5724   -6.1875    0.0000 C   0  0  0  0  0  0  0  0  0  0  0  0
    2.8579   -2.4750    0.0000 C   0  0  0  0  0  0  0  0  0  0  0  0
    2.1434   -2.8875    0.0000 C   0  0  0  0  0  0  0  0  0  0  0  0
  1  2  1  0  0  0  0
  2  3  1  0  0  0  0
  3  4  1  0  0  0  0
  4  5  4  0  0  0  0
  5  6  4  0  0  0  0
  6  7  4  0  0  0  0
  7  8  1  0  0  0  0
  8  9  1  0  0  0  0
  9 10  4  0  0  0  0
 10 11  4  0  0  0  0
 11 12  4  0  0  0  0
 12 13  4  0  0  0  0
 13 14  4  0  0  0  0
  9 14  4  0  0  0  0
 14 15  1  0  0  0  0
 15 16  1  0  0  0  0
 16 17  1  0  0  0  0
 17 18  1  0  0  0  0
 18 19  1  0  0  0  0
 19 20  1  0  0  0  0
 20 21  1  0  0  0  0
 21 22  1  0  0  0  0
 22 23  1  0  0  0  0
 22 24  1  0  0  0  0
 24 25  1  0  0  0  0
 19 25  1  0  0  0  0
 15 26  1  0  0  0  0
  7 26  4  0  0  0  0
 26 27  4  0  0  0  0
  4 27  4  0  0  0  0
M  END

> <ChembankId>
3057

> <SMILES>
CCSc1ccc2Sc3ccccc3N(CCCN4CCN(C)CC4)c2c1

> <InChI>
1/C22H29N3S2/c1-3-26-18-9-10-22-20(17-18)25(19-7-4-5-8-21(19)27-22)12-6-11-24-15-13-23(2)14-16-24/h4-5,7-10,17H,3,6,11-16H2,1-2H3

$$$$
3587
  Marvin  11101114192D          

 38 42  0  0  1  0            999 V2000
    2.1434   -5.3625    0.0000 C   0  0  0  0  0  0  0  0  0  0  0  0
    2.8579   -4.9500    0.0000 O   0  0  0  0  0  0  0  0  0  0  0  0
    2.8579   -4.1250    0.0000 C   0  0  0  0  0  0  0  0  0  0  0  0
    2.1434   -3.7125    0.0000 C   0  0  0  0  0  0  0  0  0  0  0  0
    2.1434   -2.8875    0.0000 C   0  0  0  0  0  0  0  0  0  0  0  0
    2.8579   -2.4750    0.0000 C   0  0  0  0  0  0  0  0  0  0  0  0
    3.5724   -2.8875    0.0000 C   0  0  0  0  0  0  0  0  0  0  0  0
    4.2868   -2.4750    0.0000 C   0  0  0  0  0  0  0  0  0  0  0  0
    4.2868   -1.6500    0.0000 O   0  0  0  0  0  0  0  0  0  0  0  0
    5.0013   -2.8875    0.0000 C   0  0  0  0  0  0  0  0  0  0  0  0
    5.7158   -2.4750    0.0000 C   0  0  0  0  0  0  0  0  0  0  0  0
    5.7158   -1.6500    0.0000 O   0  0  0  0  0  0  0  0  0  0  0  0
    6.4302   -2.8875    0.0000 C   0  0  0  0  0  0  0  0  0  0  0  0
    7.1447   -2.4750    0.0000 C   0  0  0  0  0  0  0  0  0  0  0  0
    7.8592   -2.8875    0.0000 C   0  0  2  0  0  0  0  0  0  0  0  0
    8.6716   -3.0308    0.0000 O   0  0  0  0  0  0  0  0  0  0  0  0
    7.8592   -3.7125    0.0000 C   0  0  0  0  0  0  0  0  0  0  0  0
    7.1447   -4.1250    0.0000 C   0  0  2  0  0  0  0  0  0  0  0  0
    7.1447   -4.9500    0.0000 O   0  0  0  0  0  0  0  0  0  0  0  0
    7.8592   -5.3625    0.0000 C   0  0  1  0  0  0  0  0  0  0  0  0
    8.5737   -4.9500    0.0000 C   0  0  0  0  0  0  0  0  0  0  0  0
    9.2881   -5.3625    0.0000 C   0  0  2  0  0  0  0  0  0  0  0  0
   10.0026   -4.9500    0.0000 N   0  0  0  0  0  0  0  0  0  0  0  0
    9.2881   -6.1875    0.0000 C   0  0  2  0  0  0  0  0  0  0  0  0
   10.0026   -6.6000    0.0000 O   0  0  0  0  0  0  0  0  0  0  0  0
    8.5737   -6.6000    0.0000 C   0  0  2  0  0  0  0  0  0  0  0  0
    8.5737   -7.4250    0.0000 C   0  0  0  0  0  0  0  0  0  0  0  0
    7.8592   -6.1875    0.0000 O   0  0  0  0  0  0  0  0  0  0  0  0
    6.4302   -3.7125    0.0000 C   0  0  0  0  0  0  0  0  0  0  0  0
    5.7158   -4.1250    0.0000 C   0  0  0  0  0  0  0  0  0  0  0  0
    5.7158   -4.9500    0.0000 O   0  0  0  0  0  0  0  0  0  0  0  0
    5.0013   -3.7125    0.0000 C   0  0  0  0  0  0  0  0  0  0  0  0
    4.2868   -4.1250    0.0000 C   0  0  0  0  0  0  0  0  0  0  0  0
    4.2868   -4.9500    0.0000 O   0  0  0  0  0  0  0  0  0  0  0  0
    3.5724   -3.7125    0.0000 C   0  0  0  0  0  0  0  0  0  0  0  0
    8.1413   -2.1123    0.0000 C   0  0  0  0  0  0  0  0  0  0  0  0
    8.9538   -1.9690    0.0000 O   0  0  0  0  0  0  0  0  0  0  0  0
    7.6110   -1.4803    0.0000 C   0  0  0  0  0  0  0  0  0  0  0  0
  1  2  1  0  0  0  0
  2  3  1  0  0  0  0
  3  4  4  0  0  0  0
  4  5  4  0  0  0  0
  5  6  4  0  0  0  0
  6  7  4  0  0  0  0
  7  8  1  0  0  0  0
  8  9  2  0  0  0  0
  8 10  1  0  0  0  0
 10 11  4  0  0  0  0
 11 12  1  0  0  0  0
 11 13  4  0  0  0  0
 13 14  1  0  0  0  0
 14 15  1  0  0  0  0
 15 16  1  6  0  0  0
 15 17  1  0  0  0  0
 17 18  1  0  0  0  0
 18 19  1  6  0  0  0
 20 19  1  1  0  0  0
 20 21  1  0  0  0  0
 21 22  1  0  0  0  0
 22 23  1  6  0  0  0
 22 24  1  0  0  0  0
 24 25  1  6  0  0  0
 24 26  1  0  0  0  0
 26 27  1  6  0  0  0
 26 28  1  0  0  0  0
 20 28  1  0  0  0  0
 18 29  1  0  0  0  0
 13 29  4  0  0  0  0
 29 30  4  0  0  0  0
 30 31  1  0  0  0  0
 30 32  4  0  0  0  0
 10 32  4  0  0  0  0
 32 33  1  0  0  0  0
 33 34  2  0  0  0  0
 33 35  1  0  0  0  0
  3 35  4  0  0  0  0
  7 35  4  0  0  0  0
 15 36  1  1  0  0  0
 36 37  2  0  0  0  0
 36 38  1  0  0  0  0
M  END

> <ChembankId>
3587

> <SMILES>
COc1cccc2C(=O)c3c(O)c4C[C@](O)(C[C@H](O[C@H]5C[C@H](N)[C@H](O)[C@H](C)O5)c4c(O)c3C(=O)c12)C(=O)C

> <InChI>
1/C27H29NO10/c1-10-22(30)14(28)7-17(37-10)38-16-9-27(35,11(2)29)8-13-19(16)26(34)21-20(24(13)32)23(31)12-5-4-6-15(36-3)18(12)25(21)33/h4-6,10,14,16-17,22,30,32,34-35H,7-9,28H2,1-3H3

$$$$
832295
  Marvin  11101114192D          

 34 34  0  0  1  0            999 V2000
   -5.7158   -8.2500    0.0000 C   0  0  0  0  0  0  0  0  0  0  0  0
   -5.0013   -7.8375    0.0000 C   0  0  0  0  0  0  0  0  0  0  0  0
   -5.0013   -7.0125    0.0000 C   0  0  0  0  0  0  0  0  0  0  0  0
   -4.2868   -8.2500    0.0000 C   0  0  0  0  0  0  0  0  0  0  0  0
   -3.5724   -7.8375    0.0000 C   0  0  1  0  0  0  0  0  0  0  0  0
   -3.5724   -7.0125    0.0000 C   0  0  0  0  0  0  0  0  0  0  0  0
   -4.2868   -6.6000    0.0000 O   0  0  0  0  0  0  0  0  0  0  0  0
   -2.8579   -8.2500    0.0000 N   0  0  0  0  0  0  0  0  0  0  0  0
   -2.1434   -7.8375    0.0000 C   0  0  0  0  0  0  0  0  0  0  0  0
   -2.1434   -7.0125    0.0000 O   0  0  0  0  0  0  0  0  0  0  0  0
   -1.4289   -8.2500    0.0000 C   0  0  2  0  0  0  0  0  0  0  0  0
   -1.4289   -9.0750    0.0000 C   0  0  0  0  0  0  0  0  0  0  0  0
   -2.1434   -9.4875    0.0000 C   0  0  0  0  0  0  0  0  0  0  0  0
   -2.1434  -10.3125    0.0000 C   0  0  0  0  0  0  0  0  0  0  0  0
   -2.8579   -9.0750    0.0000 C   0  0  0  0  0  0  0  0  0  0  0  0
   -0.7145   -7.8375    0.0000 N   0  0  0  0  0  0  0  0  0  0  0  0
    0.0000   -8.2500    0.0000 C   0  0  0  0  0  0  0  0  0  0  0  0
    0.0000   -9.0750    0.0000 O   0  0  0  0  0  0  0  0  0  0  0  0
    0.7145   -7.8375    0.0000 C   0  0  2  0  0  0  0  0  0  0  0  0
    0.7145   -7.0125    0.0000 C   0  0  0  0  0  0  0  0  0  0  0  0
    0.0000   -6.6000    0.0000 C   0  0  0  0  0  0  0  0  0  0  0  0
   -0.7145   -7.0125    0.0000 C   0  0  0  0  0  0  0  0  0  0  0  0
    0.0000   -5.7750    0.0000 C   0  0  0  0  0  0  0  0  0  0  0  0
    1.4289   -8.2500    0.0000 N   0  0  0  0  0  0  0  0  0  0  0  0
    2.1434   -7.8375    0.0000 C   0  0  0  0  0  0  0  0  0  0  0  0
    2.1434   -7.0125    0.0000 O   0  0  0  0  0  0  0  0  0  0  0  0
    2.8579   -8.2500    0.0000 O   0  0  0  0  0  0  0  0  0  0  0  0
    3.5724   -7.8375    0.0000 C   0  0  0  0  0  0  0  0  0  0  0  0
    4.2868   -8.2500    0.0000 C   0  0  0  0  0  0  0  0  0  0  0  0
    5.0013   -7.8375    0.0000 C   0  0  0  0  0  0  0  0  0  0  0  0
    5.7158   -8.2500    0.0000 C   0  0  0  0  0  0  0  0  0  0  0  0
    5.7158   -9.0750    0.0000 C   0  0  0  0  0  0  0  0  0  0  0  0
    5.0013   -9.4875    0.0000 C   0  0  0  0  0  0  0  0  0  0  0  0
    4.2868   -9.0750    0.0000 C   0  0  0  0  0  0  0  0  0  0  0  0
  1  2  1  0  0  0  0
  2  3  1  0  0  0  0
  2  4  1  0  0  0  0
  4  5  1  0  0  0  0
  5  6  1  0  0  0  0
  6  7  1  0  0  0  0
  5  8  1  1  0  0  0
  8  9  1  0  0  0  0
  9 10  2  0  0  0  0
  9 11  1  0  0  0  0
 11 12  1  0  0  0  0
 12 13  1  0  0  0  0
 13 14  1  0  0  0  0
 13 15  1  0  0  0  0
 11 16  1  1  0  0  0
 16 17  1  0  0  0  0
 17 18  2  0  0  0  0
 17 19  1  0  0  0  0
 19 20  1  0  0  0  0
 20 21  1  0  0  0  0
 21 22  1  0  0  0  0
 21 23  1  0  0  0  0
 19 24  1  6  0  0  0
 24 25  1  0  0  0  0
 25 26  2  0  0  0  0
 25 27  1  0  0  0  0
 27 28  1  0  0  0  0
 28 29  1  0  0  0  0
 29 30  4  0  0  0  0
 30 31  4  0  0  0  0
 31 32  4  0  0  0  0
 32 33  4  0  0  0  0
 33 34  4  0  0  0  0
 29 34  4  0  0  0  0
M  END

> <ChembankId>
832295

> <SMILES>
CC(C)C[C@@H](CO)NC(=O)[C@H](CC(C)C)NC(=O)[C@H](CC(C)C)NC(=O)OCc1ccccc1

> <InChI>
1/C26H43N3O5/c1-17(2)12-21(15-30)27-24(31)22(13-18(3)4)28-25(32)23(14-19(5)6)29-26(33)34-16-20-10-8-7-9-11-20/h7-11,17-19,21-23,30H,12-16H2,1-6H3,(H,27,31)(H,28,32)(H,29,33)

$$$$
1000162
  Marvin  11101114192D          

 24 26  0  0  1  0            999 V2000
    2.7069    0.5635    0.0000 C   0  0  0  0  0  0  0  0  0  0  0  0
    1.9924    0.9760    0.0000 C   0  0  0  0  0  0  0  0  0  0  0  0
    1.2780    0.5635    0.0000 C   0  0  0  0  0  0  0  0  0  0  0  0
    0.5635    0.9760    0.0000 N   0  0  0  0  0  0  0  0  0  0  0  0
    0.5635    1.8010    0.0000 C   0  0  2  0  0  0  0  0  0  0  0  0
    1.2780    2.2135    0.0000 S   0  0  0  0  0  0  0  0  0  0  0  0
    1.9924    1.8010    0.0000 C   0  0  0  0  0  0  0  0  0  0  0  0
   -0.2615    1.8010    0.0000 C   0  0  1  0  0  0  0  0  0  0  0  0
   -0.8449    2.3843    0.0000 N   0  0  0  0  0  0  0  0  0  0  0  0
   -0.6314    3.1812    0.0000 C   0  0  0  0  0  0  0  0  0  0  0  0
    0.1655    3.3948    0.0000 O   0  0  0  0  0  0  0  0  0  0  0  0
   -1.2147    3.7646    0.0000 C   0  0  1  0  0  0  0  0  0  0  0  0
   -2.0116    3.5511    0.0000 N   0  0  0  0  0  0  0  0  0  0  0  0
   -1.0012    4.5615    0.0000 C   0  0  0  0  0  0  0  0  0  0  0  0
   -1.5846    5.1449    0.0000 C   0  0  0  0  0  0  0  0  0  0  0  0
   -1.3710    5.9417    0.0000 C   0  0  0  0  0  0  0  0  0  0  0  0
   -0.5741    6.1553    0.0000 C   0  0  0  0  0  0  0  0  0  0  0  0
    0.0092    5.5719    0.0000 C   0  0  0  0  0  0  0  0  0  0  0  0
   -0.2043    4.7750    0.0000 C   0  0  0  0  0  0  0  0  0  0  0  0
   -0.2615    0.9760    0.0000 C   0  0  0  0  0  0  0  0  0  0  0  0
   -0.8449    0.3926    0.0000 O   0  0  0  0  0  0  0  0  0  0  0  0
    1.2780   -0.2615    0.0000 C   0  0  0  0  0  0  0  0  0  0  0  0
    0.5635   -0.6740    0.0000 O   0  0  0  0  0  0  0  0  0  0  0  0
    1.9924   -0.6740    0.0000 O   0  0  0  0  0  0  0  0  0  0  0  0
  1  2  1  0  0  0  0
  2  3  2  0  0  0  0
  3  4  1  0  0  0  0
  5  4  1  1  0  0  0
  5  6  1  0  0  0  0
  6  7  1  0  0  0  0
  2  7  1  0  0  0  0
  5  8  1  0  0  0  0
  8  9  1  6  0  0  0
  9 10  1  0  0  0  0
 10 11  2  0  0  0  0
 10 12  1  0  0  0  0
 12 13  1  1  0  0  0
 12 14  1  0  0  0  0
 14 15  2  0  0  0  0
 15 16  1  0  0  0  0
 16 17  1  0  0  0  0
 17 18  2  0  0  0  0
 18 19  1  0  0  0  0
 14 19  1  0  0  0  0
  8 20  1  0  0  0  0
  4 20  1  0  0  0  0
 20 21  2  0  0  0  0
  3 22  1  0  0  0  0
 22 23  2  0  0  0  0
 22 24  1  0  0  0  0
M  END

> <ChembankId>
1000162

> <SMILES>
CC1=C(N2[C@H](SC1)[C@@H](NC(=O)[C@@H](N)C3=CCC=CC3)C2=O)C(=O)O

> <InChI>
1/C16H19N3O4S/c1-8-7-24-15-11(14(21)19(15)12(8)16(22)23)18-13(20)10(17)9-5-3-2-4-6-9/h2-3,6,10-11,15H,4-5,7,17H2,1H3,(H,18,20)(H,22,23)

$$$$
2637
  Marvin  11101114192D          

 21 22  0  0  1  0            999 V2000
   -2.1434   -2.8875    0.0000 C   0  0  0  0  0  0  0  0  0  0  0  0
   -1.4289   -3.3000    0.0000 C   0  0  0  0  0  0  0  0  0  0  0  0
   -1.8414   -4.0145    0.0000 C   0  0  0  0  0  0  0  0  0  0  0  0
   -1.0164   -2.5855    0.0000 C   0  0  0  0  0  0  0  0  0  0  0  0
   -0.7145   -3.7125    0.0000 N   0  0  0  0  0  0  0  0  0  0  0  0
    0.0000   -3.3000    0.0000 C   0  0  0  0  0  0  0  0  0  0  0  0
    0.7145   -3.7125    0.0000 C   0  0  2  0  0  0  0  0  0  0  0  0
    0.7145   -4.5375    0.0000 O   0  0  0  0  0  0  0  0  0  0  0  0
    1.4289   -3.3000    0.0000 C   0  0  0  0  0  0  0  0  0  0  0  0
    2.1434   -3.7125    0.0000 O   0  0  0  0  0  0  0  0  0  0  0  0
    2.8579   -3.3000    0.0000 C   0  0  0  0  0  0  0  0  0  0  0  0
    2.8579   -2.4750    0.0000 C   0  0  0  0  0  0  0  0  0  0  0  0
    3.5724   -2.0625    0.0000 C   0  0  0  0  0  0  0  0  0  0  0  0
    4.2868   -2.4750    0.0000 C   0  0  0  0  0  0  0  0  0  0  0  0
    4.2868   -3.3000    0.0000 C   0  0  0  0  0  0  0  0  0  0  0  0
    3.5724   -3.7125    0.0000 C   0  0  0  0  0  0  0  0  0  0  0  0
    3.5724   -4.5375    0.0000 C   0  0  0  0  0  0  0  0  0  0  0  0
    4.2398   -5.0224    0.0000 C   0  0  0  0  0  0  0  0  0  0  0  0
    3.9849   -5.8070    0.0000 C   0  0  0  0  0  0  0  0  0  0  0  0
    3.1599   -5.8070    0.0000 C   0  0  0  0  0  0  0  0  0  0  0  0
    2.9049   -5.0224    0.0000 C   0  0  0  0  0  0  0  0  0  0  0  0
  1  2  1  0  0  0  0
  2  3  1  0  0  0  0
  2  4  1  0  0  0  0
  2  5  1  0  0  0  0
  5  6  1  0  0  0  0
  6  7  1  0  0  0  0
  7  8  1  1  0  0  0
  7  9  1  0  0  0  0
  9 10  1  0  0  0  0
 10 11  1  0  0  0  0
 11 12  4  0  0  0  0
 12 13  4  0  0  0  0
 13 14  4  0  0  0  0
 14 15  4  0  0  0  0
 15 16  4  0  0  0  0
 11 16  4  0  0  0  0
 16 17  1  0  0  0  0
 17 18  1  0  0  0  0
 18 19  1  0  0  0  0
 19 20  1  0  0  0  0
 20 21  1  0  0  0  0
 17 21  1  0  0  0  0
M  END

> <ChembankId>
2637

> <SMILES>
CC(C)(C)NC[C@H](O)COc1ccccc1C2CCCC2

> <InChI>
1/C18H29NO2/c1-18(2,3)19-12-15(20)13-21-17-11-7-6-10-16(17)14-8-4-5-9-14/h6-7,10-11,14-15,19-20H,4-5,8-9,12-13H2,1-3H3

$$$$
2612
  Marvin  11101114192D          

 26 28  0  0  1  0            999 V2000
   -4.2868   -5.7750    0.0000 O   0  0  0  0  0  0  0  0  0  0  0  0
   -3.5724   -5.3625    0.0000 C   0  0  0  0  0  0  0  0  0  0  0  0
   -2.8579   -5.7750    0.0000 C   0  0  0  0  0  0  0  0  0  0  0  0
   -2.1434   -5.3625    0.0000 O   0  0  0  0  0  0  0  0  0  0  0  0
   -1.4289   -5.7750    0.0000 C   0  0  0  0  0  0  0  0  0  0  0  0
   -0.7145   -5.3625    0.0000 C   0  0  0  0  0  0  0  0  0  0  0  0
    0.0000   -5.7750    0.0000 N   0  0  0  0  0  0  0  0  0  0  0  0
    0.7145   -5.3625    0.0000 C   0  0  0  0  0  0  0  0  0  0  0  0
    1.4289   -5.7750    0.0000 C   0  0  0  0  0  0  0  0  0  0  0  0
    1.4289   -6.6000    0.0000 N   0  0  0  0  0  0  0  0  0  0  0  0
    0.7145   -7.0125    0.0000 C   0  0  0  0  0  0  0  0  0  0  0  0
    0.0000   -6.6000    0.0000 C   0  0  0  0  0  0  0  0  0  0  0  0
    2.1434   -7.0125    0.0000 C   0  0  2  0  0  0  0  0  0  0  0  0
    2.1434   -7.8375    0.0000 C   0  0  0  0  0  0  0  0  0  0  0  0
    2.8579   -8.2500    0.0000 C   0  0  0  0  0  0  0  0  0  0  0  0
    2.8579   -9.0750    0.0000 C   0  0  0  0  0  0  0  0  0  0  0  0
    2.1434   -9.4875    0.0000 C   0  0  0  0  0  0  0  0  0  0  0  0
    1.4289   -9.0750    0.0000 C   0  0  0  0  0  0  0  0  0  0  0  0
    1.4289   -8.2500    0.0000 C   0  0  0  0  0  0  0  0  0  0  0  0
    2.8579   -6.6000    0.0000 C   0  0  0  0  0  0  0  0  0  0  0  0
    2.8579   -5.7750    0.0000 C   0  0  0  0  0  0  0  0  0  0  0  0
    3.5724   -5.3625    0.0000 C   0  0  0  0  0  0  0  0  0  0  0  0
    4.2868   -5.7750    0.0000 C   0  0  0  0  0  0  0  0  0  0  0  0
    5.0013   -5.3625    0.0000 Cl  0  0  0  0  0  0  0  0  0  0  0  0
    4.2868   -6.6000    0.0000 C   0  0  0  0  0  0  0  0  0  0  0  0
    3.5724   -7.0125    0.0000 C   0  0  0  0  0  0  0  0  0  0  0  0
  1  2  1  0  0  0  0
  2  3  1  0  0  0  0
  3  4  1  0  0  0  0
  4  5  1  0  0  0  0
  5  6  1  0  0  0  0
  6  7  1  0  0  0  0
  7  8  1  0  0  0  0
  8  9  1  0  0  0  0
  9 10  1  0  0  0  0
 10 11  1  0  0  0  0
 11 12  1  0  0  0  0
  7 12  1  0  0  0  0
 13 10  1  1  0  0  0
 13 14  1  0  0  0  0
 14 15  4  0  0  0  0
 15 16  4  0  0  0  0
 16 17  4  0  0  0  0
 17 18  4  0  0  0  0
 18 19  4  0  0  0  0
 14 19  4  0  0  0  0
 13 20  1  0  0  0  0
 20 21  4  0  0  0  0
 21 22  4  0  0  0  0
 22 23  4  0  0  0  0
 23 24  1  0  0  0  0
 23 25  4  0  0  0  0
 25 26  4  0  0  0  0
 20 26  4  0  0  0  0
M  END

> <ChembankId>
2612

> <SMILES>
OCCOCCN1CCN(CC1)[C@H](c2ccccc2)c3ccc(Cl)cc3

> <InChI>
1/C21H27ClN2O2/c22-20-8-6-19(7-9-20)21(18-4-2-1-3-5-18)24-12-10-23(11-13-24)14-16-26-17-15-25/h1-9,21,25H,10-17H2

$$$$
1001955
  Marvin  11101114192D          

 24 26  0  0  0  0            999 V2000
    4.2868   -1.6500    0.0000 C   0  0  0  0  0  0  0  0  0  0  0  0
    5.0013   -1.2375    0.0000 C   0  0  0  0  0  0  0  0  0  0  0  0
    5.7158   -1.6500    0.0000 C   0  0  0  0  0  0  0  0  0  0  0  0
    6.4302   -1.2375    0.0000 O   0  0  0  0  0  0  0  0  0  0  0  0
    5.7158   -2.4750    0.0000 C   0  0  0  0  0  0  0  0  0  0  0  0
    6.4302   -2.8875    0.0000 C   0  0  0  0  0  0  0  0  0  0  0  0
    6.4302   -3.7125    0.0000 C   0  0  0  0  0  0  0  0  0  0  0  0
    5.7158   -4.1250    0.0000 C   0  0  0  0  0  0  0  0  0  0  0  0
    5.7158   -4.9500    0.0000 O   0  0  0  0  0  0  0  0  0  0  0  0
    5.0013   -3.7125    0.0000 C   0  0  0  0  0  0  0  0  0  0  0  0
    5.0013   -2.8875    0.0000 C   0  0  0  0  0  0  0  0  0  0  0  0
    5.0013   -0.4125    0.0000 N   0  0  0  0  0  0  0  0  0  0  0  0
    4.2868    0.0000    0.0000 C   0  0  0  0  0  0  0  0  0  0  0  0
    4.2868    0.8250    0.0000 C   0  0  0  0  0  0  0  0  0  0  0  0
    5.0013    1.2375    0.0000 C   0  0  0  0  0  0  0  0  0  0  0  0
    5.0013    2.0625    0.0000 C   0  0  0  0  0  0  0  0  0  0  0  0
    5.7158    2.4750    0.0000 C   0  0  0  0  0  0  0  0  0  0  0  0
    5.7158    3.3000    0.0000 C   0  0  0  0  0  0  0  0  0  0  0  0
    6.4302    3.7125    0.0000 C   0  0  0  0  0  0  0  0  0  0  0  0
    7.1447    3.3000    0.0000 C   0  0  0  0  0  0  0  0  0  0  0  0
    7.1447    2.4750    0.0000 C   0  0  0  0  0  0  0  0  0  0  0  0
    6.4302    2.0625    0.0000 C   0  0  0  0  0  0  0  0  0  0  0  0
    5.7158    0.8250    0.0000 C   0  0  0  0  0  0  0  0  0  0  0  0
    5.7158    0.0000    0.0000 C   0  0  0  0  0  0  0  0  0  0  0  0
  1  2  1  0  0  0  0
  2  3  1  0  0  0  0
  3  4  1  0  0  0  0
  3  5  1  0  0  0  0
  5  6  4  0  0  0  0
  6  7  4  0  0  0  0
  7  8  4  0  0  0  0
  8  9  1  0  0  0  0
  8 10  4  0  0  0  0
 10 11  4  0  0  0  0
  5 11  4  0  0  0  0
  2 12  1  0  0  0  0
 12 13  1  0  0  0  0
 13 14  1  0  0  0  0
 14 15  1  0  0  0  0
 15 16  1  0  0  0  0
 16 17  1  0  0  0  0
 17 18  4  0  0  0  0
 18 19  4  0  0  0  0
 19 20  4  0  0  0  0
 20 21  4  0  0  0  0
 21 22  4  0  0  0  0
 17 22  4  0  0  0  0
 15 23  1  0  0  0  0
 23 24  1  0  0  0  0
 12 24  1  0  0  0  0
M  END

> <ChembankId>
1001955

> <SMILES>
CC(C(O)c1ccc(O)cc1)N2CCC(Cc3ccccc3)CC2

> <InChI>
1/C21H27NO2/c1-16(21(24)19-7-9-20(23)10-8-19)22-13-11-18(12-14-22)15-17-5-3-2-4-6-17/h2-10,16,18,21,23-24H,11-15H2,1H3

$$$$
3614733
  Marvin  11101114192D          

 22 25  0  0  1  0            999 V2000
    3.5330   -3.2587    0.0000 C   0  0  0  0  0  0  0  0  0  0  0  0
    3.8928   -2.5163    0.0000 C   0  0  2  0  0  0  0  0  0  0  0  0
    4.4247   -3.1470    0.0000 C   0  0  0  0  0  0  0  0  0  0  0  0
    5.2368   -3.0018    0.0000 C   0  0  0  0  0  0  0  0  0  0  0  0
    5.5171   -2.2259    0.0000 C   0  0  1  0  0  0  0  0  0  0  0  0
    4.9853   -1.5952    0.0000 C   0  0  1  0  0  0  0  0  0  0  0  0
    5.2655   -0.8192    0.0000 C   0  0  0  0  0  0  0  0  0  0  0  0
    6.0777   -0.6740    0.0000 C   0  0  0  0  0  0  0  0  0  0  0  0
    6.3580    0.1019    0.0000 C   0  0  0  0  0  0  0  0  0  0  0  0
    6.6095   -1.3047    0.0000 C   0  0  0  0  0  0  0  0  0  0  0  0
    7.4216   -1.1595    0.0000 C   0  0  0  0  0  0  0  0  0  0  0  0
    7.9534   -1.7902    0.0000 C   0  0  0  0  0  0  0  0  0  0  0  0
    8.7655   -1.6450    0.0000 O   0  0  0  0  0  0  0  0  0  0  0  0
    7.6731   -2.5662    0.0000 C   0  0  0  0  0  0  0  0  0  0  0  0
    6.8610   -2.7114    0.0000 C   0  0  0  0  0  0  0  0  0  0  0  0
    6.3292   -2.0807    0.0000 C   0  0  2  0  0  0  0  0  0  0  0  0
    6.0489   -2.8566    0.0000 C   0  0  0  0  0  0  0  0  0  0  0  0
    4.1731   -1.7404    0.0000 C   0  0  2  0  0  0  0  0  0  0  0  0
    3.5218   -1.2340    0.0000 C   0  0  0  0  0  0  0  0  0  0  0  0
    2.8390   -1.6970    0.0000 C   0  0  0  0  0  0  0  0  0  0  0  0
    3.0683   -2.4895    0.0000 C   0  0  0  0  0  0  0  0  0  0  0  0
    2.5619   -3.1408    0.0000 O   0  0  0  0  0  0  0  0  0  0  0  0
  2  1  1  1  0  0  0
  2  3  1  0  0  0  0
  3  4  1  0  0  0  0
  5  4  1  1  0  0  0
  5  6  1  0  0  0  0
  6  7  1  6  0  0  0
  7  8  1  0  0  0  0
  8  9  2  0  0  0  0
  8 10  1  0  0  0  0
 10 11  2  0  0  0  0
 11 12  1  0  0  0  0
 12 13  2  0  0  0  0
 12 14  1  0  0  0  0
 14 15  2  0  0  0  0
 15 16  1  0  0  0  0
  5 16  1  0  0  0  0
 10 16  1  0  0  0  0
 16 17  1  1  0  0  0
  6 18  1  0  0  0  0
  2 18  1  0  0  0  0
 18 19  1  1  0  0  0
 19 20  1  0  0  0  0
 20 21  1  0  0  0  0
  2 21  1  0  0  0  0
 21 22  2  0  0  0  0
M  END

> <ChembankId>
3614733

> <SMILES>
C[C@@]12CC[C@H]3[C@@H](CC(=C)C4=CC(=O)C=C[C@]34C)[C@@H]2CCC1=O

> <InChI>
1/C20H24O2/c1-12-10-14-15-4-5-18(22)20(15,3)9-7-16(14)19(2)8-6-13(21)11-17(12)19/h6,8,11,14-16H,1,4-5,7,9-10H2,2-3H3

$$$$
3614739
  Marvin  11101114192D          

 41 44  0  0  1  0            999 V2000
    1.7858    0.8022    0.0000 C   0  0  0  0  0  0  0  0  0  0  0  0
    1.6324   -0.0084    0.0000 C   0  0  2  0  0  0  0  0  0  0  0  0
    0.9542    0.4615    0.0000 C   0  0  0  0  0  0  0  0  0  0  0  0
    0.2083    0.1091    0.0000 C   0  0  0  0  0  0  0  0  0  0  0  0
    0.1405   -0.7131    0.0000 C   0  0  1  0  0  0  0  0  0  0  0  0
    0.8186   -1.1830    0.0000 C   0  0  0  0  0  0  0  0  0  0  0  0
    1.5646   -0.8306    0.0000 C   0  0  2  0  0  0  0  0  0  0  0  0
    2.3256   -1.1492    0.0000 C   0  0  0  0  0  0  0  0  0  0  0  0
    2.8637   -0.5238    0.0000 C   0  0  0  0  0  0  0  0  0  0  0  0
    2.4353    0.1812    0.0000 C   0  0  2  0  0  0  0  0  0  0  0  0
    2.7539    0.9422    0.0000 O   0  0  0  0  0  0  0  0  0  0  0  0
    0.7508   -2.0052    0.0000 C   0  0  2  0  0  0  0  0  0  0  0  0
    1.4289   -2.4750    0.0000 C   0  0  0  0  0  0  0  0  0  0  0  0
    2.1749   -2.1226    0.0000 C   0  0  0  0  0  0  0  0  0  0  0  0
    2.8530   -2.5925    0.0000 C   0  0  0  0  0  0  0  0  0  0  0  0
    3.5990   -2.2401    0.0000 C   0  0  0  0  0  0  0  0  0  0  0  0
    4.2772   -2.7099    0.0000 C   0  0  0  0  0  0  0  0  0  0  0  0
    5.0231   -2.3575    0.0000 C   0  0  0  0  0  0  0  0  0  0  0  0
    5.7013   -2.8274    0.0000 C   0  0  0  0  0  0  0  0  0  0  0  0
    6.4472   -2.4750    0.0000 C   0  0  0  0  0  0  0  0  0  0  0  0
    7.1254   -2.9448    0.0000 C   0  0  0  0  0  0  0  0  0  0  0  0
    7.8713   -2.5925    0.0000 S   0  0  0  0  0  0  0  0  0  0  0  0
    7.9391   -1.7703    0.0000 O   0  0  0  0  0  0  0  0  0  0  0  0
    8.5495   -3.0623    0.0000 C   0  0  0  0  0  0  0  0  0  0  0  0
    9.2954   -2.7099    0.0000 C   0  0  0  0  0  0  0  0  0  0  0  0
    9.9736   -3.1797    0.0000 C   0  0  0  0  0  0  0  0  0  0  0  0
   10.7195   -2.8274    0.0000 C   0  0  0  0  0  0  0  0  0  0  0  0
   11.0719   -3.5733    0.0000 F   0  0  0  0  0  0  0  0  0  0  0  0
   10.3672   -2.0814    0.0000 F   0  0  0  0  0  0  0  0  0  0  0  0
   11.4655   -2.4750    0.0000 C   0  0  0  0  0  0  0  0  0  0  0  0
   12.2115   -2.1226    0.0000 F   0  0  0  0  0  0  0  0  0  0  0  0
   11.8179   -3.2210    0.0000 F   0  0  0  0  0  0  0  0  0  0  0  0
   11.1131   -1.7290    0.0000 F   0  0  0  0  0  0  0  0  0  0  0  0
    0.0048   -2.3575    0.0000 C   0  0  0  0  0  0  0  0  0  0  0  0
   -0.6733   -1.8877    0.0000 C   0  0  0  0  0  0  0  0  0  0  0  0
   -1.4193   -2.2401    0.0000 C   0  0  0  0  0  0  0  0  0  0  0  0
   -2.0974   -1.7703    0.0000 C   0  0  0  0  0  0  0  0  0  0  0  0
   -2.8434   -2.1226    0.0000 O   0  0  0  0  0  0  0  0  0  0  0  0
   -2.0296   -0.9480    0.0000 C   0  0  0  0  0  0  0  0  0  0  0  0
   -1.2836   -0.5957    0.0000 C   0  0  0  0  0  0  0  0  0  0  0  0
   -0.6055   -1.0655    0.0000 C   0  0  0  0  0  0  0  0  0  0  0  0
  2  1  1  1  0  0  0
  2  3  1  0  0  0  0
  3  4  1  0  0  0  0
  4  5  1  0  0  0  0
  5  6  1  0  0  0  0
  6  7  1  0  0  0  0
  2  7  1  0  0  0  0
  7  8  1  1  0  0  0
  8  9  1  0  0  0  0
  9 10  1  0  0  0  0
  2 10  1  0  0  0  0
 10 11  1  1  0  0  0
  6 12  1  0  0  0  0
 12 13  1  6  0  0  0
 13 14  1  0  0  0  0
 14 15  1  0  0  0  0
 15 16  1  0  0  0  0
 16 17  1  0  0  0  0
 17 18  1  0  0  0  0
 18 19  1  0  0  0  0
 19 20  1  0  0  0  0
 20 21  1  0  0  0  0
 21 22  1  0  0  0  0
 22 23  2  0  0  0  0
 22 24  1  0  0  0  0
 24 25  1  0  0  0  0
 25 26  1  0  0  0  0
 26 27  1  0  0  0  0
 27 28  1  0  0  0  0
 27 29  1  0  0  0  0
 27 30  1  0  0  0  0
 30 31  1  0  0  0  0
 30 32  1  0  0  0  0
 30 33  1  0  0  0  0
 12 34  1  0  0  0  0
 34 35  1  0  0  0  0
 35 36  4  0  0  0  0
 36 37  4  0  0  0  0
 37 38  1  0  0  0  0
 37 39  4  0  0  0  0
 39 40  4  0  0  0  0
 40 41  4  0  0  0  0
  5 41  1  1  0  0  0
 35 41  4  0  0  0  0
M  END

> <ChembankId>
3614739

> <SMILES>
C[C@@]12CC[C@H]3C([C@@H]2CC[C@@H]1O)[C@H](CCCCCCCCCS(=O)CCCC(F)(F)C(F)(F)F)Cc4cc(O)ccc34

> <InChI>
1/C32H47F5O3S/c1-30-17-15-26-25-12-11-24(38)21-23(25)20-22(29(26)27(30)13-14-28(30)39)10-7-5-3-2-4-6-8-18-41(40)19-9-16-31(33,34)32(35,36)37/h11-12,21-22,26-29,38-39H,2-10,13-20H2,1H3

$$$$
3614743
  Marvin  11101114192D          

 26 27  0  0  1  0            999 V2000
  -12.1070    1.9394    0.0000 C   0  0  0  0  0  0  0  0  0  0  0  0
  -11.3224    1.6845    0.0000 C   0  0  0  0  0  0  0  0  0  0  0  0
  -10.5378    1.4296    0.0000 C   0  0  0  0  0  0  0  0  0  0  0  0
   -9.7532    1.1746    0.0000 C   0  0  0  0  0  0  0  0  0  0  0  0
   -9.1401    1.7267    0.0000 C   0  0  0  0  0  0  0  0  0  0  0  0
   -9.3116    2.5336    0.0000 C   0  0  0  0  0  0  0  0  0  0  0  0
   -8.3555    1.4717    0.0000 C   0  0  1  0  0  0  0  0  0  0  0  0
   -8.1839    0.6648    0.0000 O   0  0  0  0  0  0  0  0  0  0  0  0
   -7.7424    2.0238    0.0000 C   0  0  0  0  0  0  0  0  0  0  0  0
   -6.9577    1.7688    0.0000 C   0  0  0  0  0  0  0  0  0  0  0  0
   -6.3446    2.3209    0.0000 C   0  0  1  0  0  0  0  0  0  0  0  0
   -6.4309    3.1413    0.0000 C   0  0  2  0  0  0  0  0  0  0  0  0
   -7.1454    3.5538    0.0000 O   0  0  0  0  0  0  0  0  0  0  0  0
   -5.6772    3.4769    0.0000 C   0  0  0  0  0  0  0  0  0  0  0  0
   -5.1252    2.8638    0.0000 C   0  0  2  0  0  0  0  0  0  0  0  0
   -4.3182    2.6923    0.0000 C   0  0  0  0  0  0  0  0  0  0  0  0
   -4.2320    1.8718    0.0000 C   0  0  0  0  0  0  0  0  0  0  0  0
   -3.5175    1.4593    0.0000 C   0  0  0  0  0  0  0  0  0  0  0  0
   -2.8030    1.8718    0.0000 C   0  0  0  0  0  0  0  0  0  0  0  0
   -2.0886    1.4593    0.0000 C   0  0  0  0  0  0  0  0  0  0  0  0
   -1.3741    1.8718    0.0000 C   0  0  0  0  0  0  0  0  0  0  0  0
   -0.6596    1.4593    0.0000 C   0  0  0  0  0  0  0  0  0  0  0  0
    0.0549    1.8718    0.0000 O   0  0  0  0  0  0  0  0  0  0  0  0
   -0.6596    0.6343    0.0000 O   0  0  0  0  0  0  0  0  0  0  0  0
   -4.9856    1.5362    0.0000 C   0  0  0  0  0  0  0  0  0  0  0  0
   -5.5377    2.1493    0.0000 C   0  0  2  0  0  0  0  0  0  0  0  0
  1  2  1  0  0  0  0
  2  3  3  0  0  0  0
  3  4  1  0  0  0  0
  4  5  1  0  0  0  0
  5  6  1  0  0  0  0
  5  7  1  0  0  0  0
  7  8  1  6  0  0  0
  7  9  1  0  0  0  0
  9 10  2  0  0  0  0
 11 10  1  1  0  0  0
 11 12  1  0  0  0  0
 12 13  1  6  0  0  0
 12 14  1  0  0  0  0
 15 14  1  6  0  0  0
 15 16  1  0  0  0  0
 16 17  1  0  0  0  0
 17 18  2  0  0  0  0
 18 19  1  0  0  0  0
 19 20  1  0  0  0  0
 20 21  1  0  0  0  0
 21 22  1  0  0  0  0
 22 23  2  0  0  0  0
 22 24  1  0  0  0  0
 17 25  1  0  0  0  0
 26 25  1  6  0  0  0
 11 26  1  0  0  0  0
 15 26  1  0  0  0  0
M  END

> <ChembankId>
3614743

> <SMILES>
CC#CCC(C)[C@@H](O)/C=C/[C@H]1[C@H](O)C[C@@H]2C/C(=C\CCCC(=O)O)/C[C@H]12

> <InChI>
1/C22H32O4/c1-3-4-7-15(2)20(23)11-10-18-19-13-16(8-5-6-9-22(25)26)12-17(19)14-21(18)24/h8,10-11,15,17-21,23-24H,5-7,9,12-14H2,1-2H3,(H,25,26)

$$$$
1033337
  Marvin  11101114192D          

  3  2  0  0  0  0            999 V2000
    1.2375   -0.7145    0.0000 Cl  0  0  0  0  0  0  0  0  0  0  0  0
    1.9520   -1.1270    0.0000 Co  0  0  0  0  0  0  0  0  0  0  0  0
    2.6664   -0.7145    0.0000 Cl  0  0  0  0  0  0  0  0  0  0  0  0
  1  2  1  0  0  0  0
  2  3  1  0  0  0  0
M  END

> <ChembankId>
1033337

> <SMILES>
Cl[Co]Cl

> <InChI>
1/2ClH.Co/h2*1H;/q;;+2/p-2

$$$$
3614749
  Marvin  11101114192D          

 12 11  0  0  0  0            999 V2000
    2.9980    2.5559    0.0000 C   0  0  0  0  0  0  0  0  0  0  0  0
    3.7125    2.1434    0.0000 O   0  0  0  0  0  0  0  0  0  0  0  0
    4.4270    2.5559    0.0000 C   0  0  0  0  0  0  0  0  0  0  0  0
    4.4270    3.3809    0.0000 O   0  0  0  0  0  0  0  0  0  0  0  0
    5.1414    2.1434    0.0000 C   0  0  0  0  0  0  0  0  0  0  0  0
    5.8559    2.5559    0.0000 N   0  0  0  0  0  0  0  0  0  0  0  0
    6.5704    2.1434    0.0000 C   0  0  0  0  0  0  0  0  0  0  0  0
    6.5704    1.3184    0.0000 O   0  0  0  0  0  0  0  0  0  0  0  0
    7.2849    2.5559    0.0000 C   0  0  0  0  0  0  0  0  0  0  0  0
    7.2849    3.3809    0.0000 O   0  0  0  0  0  0  0  0  0  0  0  0
    7.9993    2.1434    0.0000 O   0  0  0  0  0  0  0  0  0  0  0  0
    8.7138    2.5559    0.0000 C   0  0  0  0  0  0  0  0  0  0  0  0
  1  2  1  0  0  0  0
  2  3  1  0  0  0  0
  3  4  2  0  0  0  0
  3  5  1  0  0  0  0
  5  6  1  0  0  0  0
  6  7  1  0  0  0  0
  7  8  2  0  0  0  0
  7  9  1  0  0  0  0
  9 10  2  0  0  0  0
  9 11  1  0  0  0  0
 11 12  1  0  0  0  0
M  END

> <ChembankId>
3614749

> <SMILES>
COC(=O)CNC(=O)C(=O)OC

> <InChI>
1/C6H9NO5/c1-11-4(8)3-7-5(9)6(10)12-2/h3H2,1-2H3,(H,7,9)

$$$$
3614751
  Marvin  11101114192D          

 26 25  0  0  0  0            999 V2000
    1.7605   -1.8414    0.0000 C   0  0  0  0  0  0  0  0  0  0  0  0
    2.4750   -1.4289    0.0000 C   0  0  0  0  0  0  0  0  0  0  0  0
    3.1895   -1.8414    0.0000 O   0  0  0  0  0  0  0  0  0  0  0  0
    3.9039   -1.4289    0.0000 C   0  0  0  0  0  0  0  0  0  0  0  0
    3.9039   -0.6039    0.0000 O   0  0  0  0  0  0  0  0  0  0  0  0
    4.6184   -1.8414    0.0000 C   0  0  0  0  0  0  0  0  0  0  0  0
    5.3329   -1.4289    0.0000 C   0  0  0  0  0  0  0  0  0  0  0  0
    6.0474   -1.8414    0.0000 C   0  0  0  0  0  0  0  0  0  0  0  0
    6.7618   -1.4289    0.0000 C   0  0  0  0  0  0  0  0  0  0  0  0
    6.7618   -0.6039    0.0000 C   0  0  0  0  0  0  0  0  0  0  0  0
    6.0474   -0.1914    0.0000 C   0  0  0  0  0  0  0  0  0  0  0  0
    6.0474    0.6336    0.0000 C   0  0  0  0  0  0  0  0  0  0  0  0
    6.7618    1.0461    0.0000 C   0  0  0  0  0  0  0  0  0  0  0  0
    7.4763    0.6336    0.0000 C   0  0  0  0  0  0  0  0  0  0  0  0
    8.1908    1.0461    0.0000 C   0  0  0  0  0  0  0  0  0  0  0  0
    8.1908    1.8711    0.0000 C   0  0  0  0  0  0  0  0  0  0  0  0
    8.9052    2.2836    0.0000 C   0  0  0  0  0  0  0  0  0  0  0  0
    8.9052    3.1086    0.0000 C   0  0  0  0  0  0  0  0  0  0  0  0
    8.1908    3.5211    0.0000 C   0  0  0  0  0  0  0  0  0  0  0  0
    8.1908    4.3461    0.0000 C   0  0  0  0  0  0  0  0  0  0  0  0
    7.4763    4.7586    0.0000 C   0  0  0  0  0  0  0  0  0  0  0  0
    6.7618    4.3461    0.0000 C   0  0  0  0  0  0  0  0  0  0  0  0
    6.0474    4.7586    0.0000 C   0  0  0  0  0  0  0  0  0  0  0  0
    5.3329    4.3461    0.0000 C   0  0  0  0  0  0  0  0  0  0  0  0
    5.3329    3.5211    0.0000 C   0  0  0  0  0  0  0  0  0  0  0  0
    4.6184    3.1086    0.0000 C   0  0  0  0  0  0  0  0  0  0  0  0
  1  2  1  0  0  0  0
  2  3  1  0  0  0  0
  3  4  1  0  0  0  0
  4  5  2  0  0  0  0
  4  6  1  0  0  0  0
  6  7  1  0  0  0  0
  7  8  1  0  0  0  0
  8  9  2  0  0  0  0
  9 10  1  0  0  0  0
 10 11  1  0  0  0  0
 11 12  2  0  0  0  0
 12 13  1  0  0  0  0
 13 14  1  0  0  0  0
 14 15  2  0  0  0  0
 15 16  1  0  0  0  0
 16 17  1  0  0  0  0
 17 18  2  0  0  0  0
 18 19  1  0  0  0  0
 19 20  1  0  0  0  0
 20 21  2  0  0  0  0
 21 22  1  0  0  0  0
 22 23  1  0  0  0  0
 23 24  2  0  0  0  0
 24 25  1  0  0  0  0
 25 26  1  0  0  0  0
M  END

> <ChembankId>
3614751

> <SMILES>
CCOC(=O)CC/C=C\C/C=C\C/C=C\C/C=C\C/C=C\C/C=C\CC

> <InChI>
1/C24H36O2/c1-3-5-6-7-8-9-10-11-12-13-14-15-16-17-18-19-20-21-22-23-24(25)26-4-2/h5-6,8-9,11-12,14-15,17-18,20-21H,3-4,7,10,13,16,19,22-23H2,1-2H3

$$$$
3614754
  Marvin  11101114192D          

 25 27  0  0  0  0            999 V2000
   -0.1712    0.7310    0.0000 C   0  0  0  0  0  0  0  0  0  0  0  0
   -0.5837    0.0165    0.0000 O   0  0  0  0  0  0  0  0  0  0  0  0
   -0.1712   -0.6979    0.0000 C   0  0  0  0  0  0  0  0  0  0  0  0
   -0.5837   -1.4124    0.0000 O   0  0  0  0  0  0  0  0  0  0  0  0
    0.6538   -0.6979    0.0000 C   0  0  0  0  0  0  0  0  0  0  0  0
    1.1387   -0.0305    0.0000 C   0  0  0  0  0  0  0  0  0  0  0  0
    1.9233   -0.2854    0.0000 C   0  0  0  0  0  0  0  0  0  0  0  0
    2.6378    0.1271    0.0000 C   0  0  0  0  0  0  0  0  0  0  0  0
    3.3523   -0.2854    0.0000 C   0  0  0  0  0  0  0  0  0  0  0  0
    3.3523   -1.1104    0.0000 C   0  0  0  0  0  0  0  0  0  0  0  0
    2.6378   -1.5229    0.0000 C   0  0  0  0  0  0  0  0  0  0  0  0
    1.9233   -1.1104    0.0000 C   0  0  0  0  0  0  0  0  0  0  0  0
    1.1387   -1.3654    0.0000 N   0  0  0  0  0  0  0  0  0  0  0  0
    0.8838   -2.1500    0.0000 C   0  0  0  0  0  0  0  0  0  0  0  0
    1.4358   -2.7631    0.0000 C   0  0  0  0  0  0  0  0  0  0  0  0
    2.2428   -2.5916    0.0000 C   0  0  0  0  0  0  0  0  0  0  0  0
    2.7948   -3.2047    0.0000 C   0  0  0  0  0  0  0  0  0  0  0  0
    2.5399   -3.9893    0.0000 C   0  0  0  0  0  0  0  0  0  0  0  0
    3.0919   -4.6024    0.0000 Cl  0  0  0  0  0  0  0  0  0  0  0  0
    1.7329   -4.1608    0.0000 C   0  0  0  0  0  0  0  0  0  0  0  0
    1.1809   -3.5477    0.0000 C   0  0  0  0  0  0  0  0  0  0  0  0
    4.0668    0.1271    0.0000 S   0  0  0  0  0  0  0  0  0  0  0  0
    4.4793   -0.5874    0.0000 O   0  0  0  0  0  0  0  0  0  0  0  0
    3.6543    0.8415    0.0000 O   0  0  0  0  0  0  0  0  0  0  0  0
    4.7812    0.5396    0.0000 C   0  0  0  0  0  0  0  0  0  0  0  0
  1  2  1  0  0  0  0
  2  3  1  0  0  0  0
  3  4  2  0  0  0  0
  3  5  1  0  0  0  0
  5  6  4  0  0  0  0
  6  7  4  0  0  0  0
  7  8  4  0  0  0  0
  8  9  4  0  0  0  0
  9 10  4  0  0  0  0
 10 11  4  0  0  0  0
 11 12  4  0  0  0  0
  7 12  4  0  0  0  0
 12 13  4  0  0  0  0
  5 13  4  0  0  0  0
 13 14  1  0  0  0  0
 14 15  1  0  0  0  0
 15 16  4  0  0  0  0
 16 17  4  0  0  0  0
 17 18  4  0  0  0  0
 18 19  1  0  0  0  0
 18 20  4  0  0  0  0
 20 21  4  0  0  0  0
 15 21  4  0  0  0  0
  9 22  1  0  0  0  0
 22 23  2  0  0  0  0
 22 24  2  0  0  0  0
 22 25  1  0  0  0  0
M  END

> <ChembankId>
3614754

> <SMILES>
COC(=O)c1cc2cc(ccc2n1Cc3ccc(Cl)cc3)S(=O)(=O)C

> <InChI>
1/C18H16ClNO4S/c1-24-18(21)17-10-13-9-15(25(2,22)23)7-8-16(13)20(17)11-12-3-5-14(19)6-4-12/h3-10H,11H2,1-2H3

$$$$
3614757
  Marvin  11101114192D          

 26 28  0  0  0  0            999 V2000
    0.7145    2.8875    0.0000 C   0  0  0  0  0  0  0  0  0  0  0  0
    0.7145    2.0625    0.0000 S   0  0  0  0  0  0  0  0  0  0  0  0
   -0.1105    2.0625    0.0000 O   0  0  0  0  0  0  0  0  0  0  0  0
    1.5395    2.0625    0.0000 O   0  0  0  0  0  0  0  0  0  0  0  0
    0.7145    1.2375    0.0000 C   0  0  0  0  0  0  0  0  0  0  0  0
    1.4289    0.8250    0.0000 C   0  0  0  0  0  0  0  0  0  0  0  0
    1.4289   -0.0000    0.0000 C   0  0  0  0  0  0  0  0  0  0  0  0
    0.7145   -0.4125    0.0000 C   0  0  0  0  0  0  0  0  0  0  0  0
    0.0000   -0.0000    0.0000 C   0  0  0  0  0  0  0  0  0  0  0  0
    0.0000    0.8250    0.0000 C   0  0  0  0  0  0  0  0  0  0  0  0
    0.7145   -1.2375    0.0000 N   0  0  0  0  0  0  0  0  0  0  0  0
    1.3819   -1.7224    0.0000 N   0  0  0  0  0  0  0  0  0  0  0  0
    1.1270   -2.5070    0.0000 C   0  0  0  0  0  0  0  0  0  0  0  0
    0.3020   -2.5070    0.0000 C   0  0  0  0  0  0  0  0  0  0  0  0
    0.0470   -1.7224    0.0000 C   0  0  0  0  0  0  0  0  0  0  0  0
   -0.7376   -1.4675    0.0000 C   0  0  0  0  0  0  0  0  0  0  0  0
   -1.3507   -2.0195    0.0000 C   0  0  0  0  0  0  0  0  0  0  0  0
   -2.1353   -1.7646    0.0000 C   0  0  0  0  0  0  0  0  0  0  0  0
   -2.3068   -0.9576    0.0000 C   0  0  0  0  0  0  0  0  0  0  0  0
   -3.0915   -0.7027    0.0000 F   0  0  0  0  0  0  0  0  0  0  0  0
   -1.6937   -0.4056    0.0000 C   0  0  0  0  0  0  0  0  0  0  0  0
   -0.9091   -0.6605    0.0000 C   0  0  0  0  0  0  0  0  0  0  0  0
    1.6119   -3.1745    0.0000 C   0  0  0  0  0  0  0  0  0  0  0  0
    2.0968   -3.8419    0.0000 F   0  0  0  0  0  0  0  0  0  0  0  0
    0.9445   -3.6594    0.0000 F   0  0  0  0  0  0  0  0  0  0  0  0
    2.2793   -2.6896    0.0000 F   0  0  0  0  0  0  0  0  0  0  0  0
  1  2  1  0  0  0  0
  2  3  2  0  0  0  0
  2  4  2  0  0  0  0
  2  5  1  0  0  0  0
  5  6  4  0  0  0  0
  6  7  4  0  0  0  0
  7  8  4  0  0  0  0
  8  9  4  0  0  0  0
  9 10  4  0  0  0  0
  5 10  4  0  0  0  0
  8 11  1  0  0  0  0
 11 12  4  0  0  0  0
 12 13  4  0  0  0  0
 13 14  4  0  0  0  0
 14 15  4  0  0  0  0
 11 15  4  0  0  0  0
 15 16  1  0  0  0  0
 16 17  4  0  0  0  0
 17 18  4  0  0  0  0
 18 19  4  0  0  0  0
 19 20  1  0  0  0  0
 19 21  4  0  0  0  0
 21 22  4  0  0  0  0
 16 22  4  0  0  0  0
 13 23  1  0  0  0  0
 23 24  1  0  0  0  0
 23 25  1  0  0  0  0
 23 26  1  0  0  0  0
M  END

> <ChembankId>
3614757

> <SMILES>
CS(=O)(=O)c1ccc(cc1)n2nc(cc2c3ccc(F)cc3)C(F)(F)F

> <InChI>
1/C17H12F4N2O2S/c1-26(24,25)14-8-6-13(7-9-14)23-15(10-16(22-23)17(19,20)21)11-2-4-12(18)5-3-11/h2-10H,1H3

$$$$
1157879
  Marvin  11101114192D          

 21 22  0  0  0  0            999 V2000
    2.1434    1.2375    0.0000 C   0  0  0  0  0  0  0  0  0  0  0  0
    1.4289    0.8250    0.0000 C   0  0  0  0  0  0  0  0  0  0  0  0
    1.4289   -0.0000    0.0000 O   0  0  0  0  0  0  0  0  0  0  0  0
    0.7145   -0.4125    0.0000 C   0  0  0  0  0  0  0  0  0  0  0  0
    0.0000    0.0000    0.0000 O   0  0  0  0  0  0  0  0  0  0  0  0
    0.7145   -1.2375    0.0000 C   0  0  0  0  0  0  0  0  0  0  0  0
    1.4289   -1.6500    0.0000 C   0  0  0  0  0  0  0  0  0  0  0  0
    2.1434   -1.2375    0.0000 C   0  0  0  0  0  0  0  0  0  0  0  0
    1.4289   -2.4750    0.0000 N   0  0  0  0  0  0  0  0  0  0  0  0
    0.7145   -2.8875    0.0000 C   0  0  0  0  0  0  0  0  0  0  0  0
    0.7145   -3.7125    0.0000 S   0  0  0  0  0  0  0  0  0  0  0  0
    0.0000   -2.4750    0.0000 N   0  0  0  0  0  0  0  0  0  0  0  0
    0.0000   -1.6500    0.0000 C   0  0  0  0  0  0  0  0  0  0  0  0
   -0.7145   -1.2375    0.0000 C   0  0  0  0  0  0  0  0  0  0  0  0
   -1.4289   -1.6500    0.0000 C   0  0  0  0  0  0  0  0  0  0  0  0
   -2.1434   -1.2375    0.0000 C   0  0  0  0  0  0  0  0  0  0  0  0
   -2.1434   -0.4125    0.0000 C   0  0  0  0  0  0  0  0  0  0  0  0
   -1.4289   -0.0000    0.0000 C   0  0  0  0  0  0  0  0  0  0  0  0
   -1.4289    0.8250    0.0000 O   0  0  0  0  0  0  0  0  0  0  0  0
   -2.1434    1.2375    0.0000 C   0  0  0  0  0  0  0  0  0  0  0  0
   -0.7145   -0.4125    0.0000 C   0  0  0  0  0  0  0  0  0  0  0  0
  1  2  1  0  0  0  0
  2  3  1  0  0  0  0
  3  4  1  0  0  0  0
  4  5  2  0  0  0  0
  4  6  1  0  0  0  0
  6  7  2  0  0  0  0
  7  8  1  0  0  0  0
  7  9  1  0  0  0  0
  9 10  1  0  0  0  0
 10 11  2  0  0  0  0
 10 12  1  0  0  0  0
 12 13  1  0  0  0  0
  6 13  1  0  0  0  0
 13 14  1  0  0  0  0
 14 15  4  0  0  0  0
 15 16  4  0  0  0  0
 16 17  4  0  0  0  0
 17 18  4  0  0  0  0
 18 19  1  0  0  0  0
 19 20  1  0  0  0  0
 18 21  4  0  0  0  0
 14 21  4  0  0  0  0
M  END

> <ChembankId>
1157879

> <SMILES>
CCOC(=O)C1=C(C)NC(=S)NC1c2cccc(OC)c2

> <InChI>
1/C15H18N2O3S/c1-4-20-14(18)12-9(2)16-15(21)17-13(12)10-6-5-7-11(8-10)19-3/h5-8,13H,4H2,1-3H3,(H2,16,17,21)

$$$$
3614768
  Marvin  11101114192D          

  6  4  0  0  0  0            999 V2000
    0.0000    0.0000    0.0000 Cu  0  0  0  0  0  0  0  0  0  0  0  0
    2.9464   -0.8250    0.0000 O   0  0  0  0  0  0  0  0  0  0  0  0
    2.9464    0.0000    0.0000 S   0  0  0  0  0  0  0  0  0  0  0  0
    2.9464    0.8250    0.0000 O   0  0  0  0  0  0  0  0  0  0  0  0
    3.7714   -0.0000    0.0000 O   0  0  0  0  0  0  0  0  0  0  0  0
    2.1214    0.0000    0.0000 O   0  5  0  0  0  0  0  0  0  0  0  0
  2  3  1  0  0  0  0
  3  4  2  0  0  0  0
  3  5  2  0  0  0  0
  3  6  1  0  0  0  0
M  CHG  1   6  -1
M  END

> <ChembankId>
3614768

> <SMILES>
[Cu].OS(=O)(=O)[O-]

> <InChI>
1/Cu.H2O4S/c;1-5(2,3)4/h;(H2,1,2,3,4)/p-1

$$$$
2651
  Marvin  11101114192D          

 17 18  0  0  1  0            999 V2000
    0.0000   -0.0000    0.0000 O   0  0  0  0  0  0  0  0  0  0  0  0
    0.7145   -0.4125    0.0000 C   0  0  0  0  0  0  0  0  0  0  0  0
    0.7145   -1.2375    0.0000 C   0  0  1  0  0  0  0  0  0  0  0  0
    1.3819   -1.7224    0.0000 O   0  0  0  0  0  0  0  0  0  0  0  0
    1.1270   -2.5070    0.0000 C   0  0  2  0  0  0  0  0  0  0  0  0
    0.3020   -2.5070    0.0000 C   0  0  0  0  0  0  0  0  0  0  0  0
    0.0470   -1.7224    0.0000 C   0  0  2  0  0  0  0  0  0  0  0  0
   -0.7376   -1.4675    0.0000 O   0  0  0  0  0  0  0  0  0  0  0  0
    1.6119   -3.1745    0.0000 N   0  0  0  0  0  0  0  0  0  0  0  0
    2.4324   -3.0882    0.0000 C   0  0  0  0  0  0  0  0  0  0  0  0
    2.9173   -3.7557    0.0000 C   0  0  0  0  0  0  0  0  0  0  0  0
    3.7378   -3.6695    0.0000 I   0  0  0  0  0  0  0  0  0  0  0  0
    2.5817   -4.5094    0.0000 C   0  0  0  0  0  0  0  0  0  0  0  0
    3.0667   -5.1768    0.0000 O   0  0  0  0  0  0  0  0  0  0  0  0
    1.7613   -4.5956    0.0000 N   0  0  0  0  0  0  0  0  0  0  0  0
    1.2763   -3.9282    0.0000 C   0  0  0  0  0  0  0  0  0  0  0  0
    0.4559   -4.0144    0.0000 O   0  0  0  0  0  0  0  0  0  0  0  0
  1  2  1  0  0  0  0
  3  2  1  1  0  0  0
  3  4  1  0  0  0  0
  4  5  1  0  0  0  0
  5  6  1  0  0  0  0
  6  7  1  0  0  0  0
  3  7  1  0  0  0  0
  7  8  1  6  0  0  0
  5  9  1  1  0  0  0
  9 10  4  0  0  0  0
 10 11  4  0  0  0  0
 11 12  1  0  0  0  0
 11 13  4  0  0  0  0
 13 14  2  0  0  0  0
 13 15  4  0  0  0  0
 15 16  4  0  0  0  0
  9 16  4  0  0  0  0
 16 17  2  0  0  0  0
M  STY  1   1 DAT
M  SAL   1  1  15
M  SDT   1 MRV_IMPLICIT_H                                        
M  SDD   1     0.0000    0.0000    DR    ALL  0       0  
M  SED   1 IMPL_H1
M  END

> <ChembankId>
2651

> <SMILES>
OC[C@H]1O[C@H](C[C@@H]1O)n2cc(I)c(=O)[nH]c2=O

> <InChI>
1/C9H11IN2O5/c10-4-2-12(9(16)11-8(4)15)7-1-5(14)6(3-13)17-7/h2,5-7,13-14H,1,3H2,(H,11,15,16)

$$$$
3616468
  Marvin  11101114192D          

 57 60  0  0  1  0            999 V2000
    4.9429   -3.8571    0.0000 C   0  0  0  0  0  0  0  0  0  0  0  0
    4.1174   -3.7307    0.0000 O   0  0  0  0  0  0  0  0  0  0  0  0
    3.3458   -3.3525    0.0000 C   0  0  1  0  0  0  0  0  0  0  0  0
    3.5746   -2.5599    0.0000 C   0  0  0  0  0  0  0  0  0  0  0  0
    3.0026   -1.9654    0.0000 C   0  0  2  0  0  0  0  0  0  0  0  0
    3.2766   -1.1806    0.0000 O   0  0  0  0  0  0  0  0  0  0  0  0
    2.6594   -0.5783    0.0000 C   0  0  1  0  0  0  0  0  0  0  0  0
    2.4306   -1.3709    0.0000 C   0  0  2  0  0  0  0  0  0  0  0  0
    2.6762   -2.3256    0.0000 C   0  0  0  0  0  0  0  0  0  0  0  0
    1.6297   -1.5691    0.0000 C   0  0  1  0  0  0  0  0  0  0  0  0
    1.2870   -2.2630    0.0000 O   0  0  0  0  0  0  0  0  0  0  0  0
    0.6001   -2.5599    0.0000 C   0  0  2  0  0  0  0  0  0  0  0  0
    0.0280   -1.9654    0.0000 O   0  0  0  0  0  0  0  0  0  0  0  0
   -0.7728   -2.1636    0.0000 C   0  0  2  0  0  0  0  0  0  0  0  0
   -1.4483   -1.6580    0.0000 C   0  0  0  0  0  0  0  0  0  0  0  0
   -1.0016   -2.9562    0.0000 C   0  0  0  0  0  0  0  0  0  0  0  0
   -0.4296   -3.5507    0.0000 C   0  0  1  0  0  0  0  0  0  0  0  0
    0.3713   -3.3525    0.0000 C   0  0  1  0  0  0  0  0  0  0  0  0
    0.5710   -4.2113    0.0000 O   0  0  0  0  0  0  0  0  0  0  0  0
    0.7059   -5.0865    0.0000 C   0  0  0  0  0  0  0  0  0  0  0  0
    0.3666   -5.8636    0.0000 O   0  0  0  0  0  0  0  0  0  0  0  0
    1.3209   -5.6597    0.0000 C   0  0  0  0  0  0  0  0  0  0  0  0
   -1.1465   -4.0223    0.0000 N   0  0  0  0  0  0  0  0  0  0  0  0
   -0.7102   -4.7268    0.0000 C   0  0  0  0  0  0  0  0  0  0  0  0
   -1.8110   -4.4804    0.0000 C   0  0  0  0  0  0  0  0  0  0  0  0
    1.0577   -0.9746    0.0000 C   0  0  1  0  0  0  0  0  0  0  0  0
    0.2247   -0.9435    0.0000 C   0  0  0  0  0  0  0  0  0  0  0  0
    1.2865   -0.1820    0.0000 C   0  0  0  0  0  0  0  0  0  0  0  0
    0.7145    0.4125    0.0000 C   0  0  2  0  0  0  0  0  0  0  0  0
   -0.0000    0.0000    0.0000 C   0  0  0  0  0  0  0  0  0  0  0  0
    0.0000    0.8250    0.0000 O   0  0  0  0  0  0  0  0  0  0  0  0
    0.9433    1.2051    0.0000 C   0  0  0  0  0  0  0  0  0  0  0  0
    0.4155    1.8736    0.0000 O   0  0  0  0  0  0  0  0  0  0  0  0
    1.7441    1.4033    0.0000 C   0  0  2  0  0  0  0  0  0  0  0  0
    2.0847    0.6583    0.0000 C   0  0  0  0  0  0  0  0  0  0  0  0
    1.9729    2.1959    0.0000 C   0  0  1  0  0  0  0  0  0  0  0  0
    1.5834    2.9623    0.0000 O   0  0  0  0  0  0  0  0  0  0  0  0
    1.4995    3.8094    0.0000 C   0  0  0  0  0  0  0  0  0  0  0  0
    2.1591    4.3332    0.0000 O   0  0  0  0  0  0  0  0  0  0  0  0
    0.8553    4.3376    0.0000 C   0  0  0  0  0  0  0  0  0  0  0  0
    2.7738    2.3941    0.0000 C   0  0  1  0  0  0  0  0  0  0  0  0
    3.3111    3.0479    0.0000 C   0  0  0  0  0  0  0  0  0  0  0  0
    3.3458    1.7996    0.0000 C   0  0  1  0  0  0  0  0  0  0  0  0
    4.1472    2.0680    0.0000 C   0  0  0  0  0  0  0  0  0  0  0  0
    3.1170    1.0070    0.0000 O   0  0  0  0  0  0  0  0  0  0  0  0
    3.6891    0.4125    0.0000 C   0  0  0  0  0  0  0  0  0  0  0  0
    4.5154    0.6063    0.0000 O   0  0  0  0  0  0  0  0  0  0  0  0
    3.4602   -0.3801    0.0000 C   0  0  2  0  0  0  0  0  0  0  0  0
    4.2930   -0.5728    0.0000 C   0  0  0  0  0  0  0  0  0  0  0  0
    2.2018   -2.1636    0.0000 O   0  0  0  0  0  0  0  0  0  0  0  0
    1.9729   -2.9562    0.0000 C   0  0  1  0  0  0  0  0  0  0  0  0
    1.5997   -3.7072    0.0000 C   0  0  0  0  0  0  0  0  0  0  0  0
    2.5450   -3.5507    0.0000 C   0  0  2  0  0  0  0  0  0  0  0  0
    2.6928   -4.4003    0.0000 O   0  0  0  0  0  0  0  0  0  0  0  0
    2.9201   -5.2090    0.0000 C   0  0  0  0  0  0  0  0  0  0  0  0
    2.3439   -5.7994    0.0000 O   0  0  0  0  0  0  0  0  0  0  0  0
    3.7196   -5.4127    0.0000 C   0  0  0  0  0  0  0  0  0  0  0  0
  1  2  1  0  0  0  0
  3  2  1  6  0  0  0
  3  4  1  0  0  0  0
  4  5  1  0  0  0  0
  5  6  1  1  0  0  0
  7  6  1  6  0  0  0
  7  8  1  0  0  0  0
  8  9  1  6  0  0  0
  8 10  1  0  0  0  0
 10 11  1  1  0  0  0
 12 11  1  1  0  0  0
 12 13  1  0  0  0  0
 13 14  1  0  0  0  0
 14 15  1  1  0  0  0
 14 16  1  0  0  0  0
 16 17  1  0  0  0  0
 17 18  1  0  0  0  0
 12 18  1  0  0  0  0
 18 19  1  6  0  0  0
 19 20  1  0  0  0  0
 20 21  2  0  0  0  0
 20 22  1  0  0  0  0
 17 23  1  1  0  0  0
 23 24  1  0  0  0  0
 23 25  1  0  0  0  0
 10 26  1  0  0  0  0
 26 27  1  1  0  0  0
 26 28  1  0  0  0  0
 29 28  1  6  0  0  0
 29 30  1  0  0  0  0
 30 31  1  0  0  0  0
 29 31  1  0  0  0  0
 29 32  1  0  0  0  0
 32 33  2  0  0  0  0
 32 34  1  0  0  0  0
 34 35  1  1  0  0  0
 34 36  1  0  0  0  0
 36 37  1  1  0  0  0
 37 38  1  0  0  0  0
 38 39  2  0  0  0  0
 38 40  1  0  0  0  0
 36 41  1  0  0  0  0
 41 42  1  1  0  0  0
 41 43  1  0  0  0  0
 43 44  1  1  0  0  0
 43 45  1  0  0  0  0
 45 46  1  0  0  0  0
 46 47  2  0  0  0  0
 46 48  1  0  0  0  0
  7 48  1  0  0  0  0
 48 49  1  6  0  0  0
  5 50  1  0  0  0  0
 50 51  1  0  0  0  0
 51 52  1  6  0  0  0
 51 53  1  0  0  0  0
  3 53  1  0  0  0  0
 53 54  1  1  0  0  0
 54 55  1  0  0  0  0
 55 56  2  0  0  0  0
 55 57  1  0  0  0  0
M  END

> <ChembankId>
3616468

> <SMILES>
CO[C@H]1C[C@H](O[C@H]2[C@H](C)[C@@H](O[C@@H]3O[C@H](C)C[C@@H]([C@H]3OC(=O)C)N(C)C)[C@@H](C)C[C@@]4(CO4)C(=O)[C@H](C)[C@@H](OC(=O)C)[C@@H](C)[C@@H](C)OC(=O)[C@@H]2C)O[C@@H](C)[C@@H]1OC(=O)C

> <InChI>
1/C41H67NO15/c1-19-17-41(18-49-41)38(46)23(5)34(53-27(9)43)21(3)25(7)52-39(47)24(6)35(56-32-16-31(48-14)36(26(8)51-32)54-28(10)44)22(4)33(19)57-40-37(55-29(11)45)30(42(12)13)15-20(2)50-40/h19-26,30-37,40H,15-18H2,1-14H3

$$$$
3616486
  Marvin  11101114192D          

 33 37  0  0  1  0            999 V2000
   -0.1105   -3.1086    0.0000 C   0  0  0  0  0  0  0  0  0  0  0  0
    0.3020   -3.8230    0.0000 C   0  0  2  0  0  0  0  0  0  0  0  0
   -0.1105   -4.5375    0.0000 C   0  0  0  0  0  0  0  0  0  0  0  0
    0.3020   -5.2520    0.0000 C   0  0  0  0  0  0  0  0  0  0  0  0
    1.1270   -5.2520    0.0000 C   0  0  2  0  0  0  0  0  0  0  0  0
    1.5395   -5.9664    0.0000 C   0  0  0  0  0  0  0  0  0  0  0  0
    2.3645   -5.9664    0.0000 C   0  0  0  0  0  0  0  0  0  0  0  0
    2.7770   -5.2520    0.0000 C   0  0  2  0  0  0  0  0  0  0  0  0
    3.1895   -5.9664    0.0000 C   0  0  0  0  0  0  0  0  0  0  0  0
    2.3645   -4.5375    0.0000 C   0  0  0  0  0  0  0  0  0  0  0  0
    2.7770   -3.8230    0.0000 C   0  0  0  0  0  0  0  0  0  0  0  0
    3.6020   -3.8230    0.0000 C   0  0  0  0  0  0  0  0  0  0  0  0
    4.0145   -4.5375    0.0000 C   0  0  2  0  0  0  0  0  0  0  0  0
    4.8395   -4.5375    0.0000 C   0  0  1  0  0  0  0  0  0  0  0  0
    4.4270   -3.8230    0.0000 C   0  0  0  0  0  0  0  0  0  0  0  0
    5.2520   -3.8230    0.0000 C   0  0  0  0  0  0  0  0  0  0  0  0
    6.0770   -3.8230    0.0000 C   0  0  0  0  0  0  0  0  0  0  0  0
    6.4895   -4.5375    0.0000 C   0  0  2  0  0  0  0  0  0  0  0  0
    7.3145   -4.5375    0.0000 O   0  0  0  0  0  0  0  0  0  0  0  0
    6.0770   -5.2520    0.0000 C   0  0  0  0  0  0  0  0  0  0  0  0
    6.8522   -5.5341    0.0000 C   0  0  0  0  0  0  0  0  0  0  0  0
    5.9337   -6.0644    0.0000 C   0  0  0  0  0  0  0  0  0  0  0  0
    5.2520   -5.2520    0.0000 C   0  0  2  0  0  0  0  0  0  0  0  0
    4.8395   -5.9664    0.0000 C   0  0  0  0  0  0  0  0  0  0  0  0
    4.0145   -5.9664    0.0000 C   0  0  0  0  0  0  0  0  0  0  0  0
    3.6020   -5.2520    0.0000 C   0  0  1  0  0  0  0  0  0  0  0  0
    3.6882   -6.0725    0.0000 C   0  0  0  0  0  0  0  0  0  0  0  0
    1.5395   -4.5375    0.0000 C   0  0  2  0  0  0  0  0  0  0  0  0
    1.1270   -3.8230    0.0000 C   0  0  1  0  0  0  0  0  0  0  0  0
    1.5395   -3.1086    0.0000 C   0  0  0  0  0  0  0  0  0  0  0  0
    0.7145   -5.9664    0.0000 C   0  0  0  0  0  0  0  0  0  0  0  0
    1.1270   -6.6809    0.0000 O   0  0  0  0  0  0  0  0  0  0  0  0
   -0.1105   -5.9664    0.0000 O   0  0  0  0  0  0  0  0  0  0  0  0
  2  1  1  1  0  0  0
  2  3  1  0  0  0  0
  3  4  1  0  0  0  0
  4  5  1  0  0  0  0
  5  6  1  0  0  0  0
  6  7  1  0  0  0  0
  7  8  1  0  0  0  0
  8  9  1  1  0  0  0
  8 10  1  0  0  0  0
 10 11  2  0  0  0  0
 11 12  1  0  0  0  0
 13 12  1  6  0  0  0
 13 14  1  0  0  0  0
 14 15  1  6  0  0  0
 14 16  1  0  0  0  0
 16 17  1  0  0  0  0
 17 18  1  0  0  0  0
 18 19  1  6  0  0  0
 18 20  1  0  0  0  0
 20 21  1  0  0  0  0
 20 22  1  0  0  0  0
 23 20  1  6  0  0  0
 14 23  1  0  0  0  0
 23 24  1  0  0  0  0
 24 25  1  0  0  0  0
 25 26  1  0  0  0  0
 13 26  1  0  0  0  0
  8 26  1  0  0  0  0
 26 27  1  6  0  0  0
 28 10  1  1  0  0  0
  5 28  1  0  0  0  0
 28 29  1  0  0  0  0
  2 29  1  0  0  0  0
 29 30  1  6  0  0  0
  5 31  1  6  0  0  0
 31 32  2  0  0  0  0
 31 33  1  0  0  0  0
M  END

> <ChembankId>
3616486

> <SMILES>
C[C@@H]1CC[C@@]2(CC[C@]3(C)C(=CC[C@@H]4[C@@]5(C)CC[C@H](O)C(C)(C)[C@@H]5CC[C@]43C)[C@@H]2[C@H]1C)C(=O)O

> <InChI>
1/C30H48O3/c1-18-10-15-30(25(32)33)17-16-28(6)20(24(30)19(18)2)8-9-22-27(5)13-12-23(31)26(3,4)21(27)11-14-29(22,28)7/h8,18-19,21-24,31H,9-17H2,1-7H3,(H,32,33)

$$$$
3616520
  Marvin  11101114192D          

 58 60  0  0  1  0            999 V2000
    6.5540  -11.2425    0.0000 C   0  0  0  0  0  0  0  0  0  0  0  0
    5.8700  -10.7811    0.0000 O   0  0  0  0  0  0  0  0  0  0  0  0
    5.0575  -10.6379    0.0000 C   0  0  1  0  0  0  0  0  0  0  0  0
    5.3397  -11.4131    0.0000 C   0  0  1  0  0  0  0  0  0  0  0  0
    4.8094  -12.0451    0.0000 C   0  0  0  0  0  0  0  0  0  0  0  0
    3.9969  -11.9019    0.0000 C   0  0  0  0  0  0  0  0  0  0  0  0
    3.7148  -11.1266    0.0000 O   0  0  0  0  0  0  0  0  0  0  0  0
    3.4666  -12.5338    0.0000 O   0  0  0  0  0  0  0  0  0  0  0  0
    2.6542  -12.3906    0.0000 C   0  0  2  0  0  0  0  0  0  0  0  0
    2.1239  -13.0226    0.0000 C   0  0  0  0  0  0  0  0  0  0  0  0
    2.3720  -11.6153    0.0000 C   0  0  0  0  0  0  0  0  0  0  0  0
    2.9023  -10.9833    0.0000 C   0  0  0  0  0  0  0  0  0  0  0  0
    2.6201  -10.2081    0.0000 C   0  0  0  0  0  0  0  0  0  0  0  0
    3.1504   -9.5761    0.0000 C   0  0  0  0  0  0  0  0  0  0  0  0
    2.8683   -8.8009    0.0000 C   0  0  0  0  0  0  0  0  0  0  0  0
    3.3986   -8.1689    0.0000 C   0  0  2  0  0  0  0  0  0  0  0  0
    3.1164   -7.3936    0.0000 O   0  0  0  0  0  0  0  0  0  0  0  0
    4.2110   -8.3121    0.0000 C   0  0  2  0  0  0  0  0  0  0  0  0
    4.7413   -7.6802    0.0000 C   0  0  0  0  0  0  0  0  0  0  0  0
    4.4932   -9.0874    0.0000 C   0  0  0  0  0  0  0  0  0  0  0  0
    5.3057   -9.2306    0.0000 C   0  0  2  0  0  0  0  0  0  0  0  0
    5.8360   -8.5987    0.0000 C   0  0  0  0  0  0  0  0  0  0  0  0
    5.5538   -7.8234    0.0000 C   0  0  0  0  0  0  0  0  0  0  0  0
    6.0841   -7.1914    0.0000 O   0  0  0  0  0  0  0  0  0  0  0  0
    5.5878  -10.0059    0.0000 C   0  0  2  0  0  0  0  0  0  0  0  0
    6.4003  -10.1492    0.0000 O   0  0  0  0  0  0  0  0  0  0  0  0
    6.9306   -9.5172    0.0000 C   0  0  2  0  0  0  0  0  0  0  0  0
    6.6484   -8.7419    0.0000 O   0  0  0  0  0  0  0  0  0  0  0  0
    7.1787   -8.1099    0.0000 C   0  0  2  0  0  0  0  0  0  0  0  0
    6.8966   -7.3347    0.0000 C   0  0  0  0  0  0  0  0  0  0  0  0
    7.9912   -8.2532    0.0000 C   0  0  1  0  0  0  0  0  0  0  0  0
    8.5215   -7.6212    0.0000 O   0  0  0  0  0  0  0  0  0  0  0  0
    8.2393   -6.8460    0.0000 C   0  0  1  0  0  0  0  0  0  0  0  0
    8.7696   -6.2140    0.0000 C   0  0  0  0  0  0  0  0  0  0  0  0
    8.4875   -5.4387    0.0000 C   0  0  1  0  0  0  0  0  0  0  0  0
    9.2999   -5.2955    0.0000 C   0  0  0  0  0  0  0  0  0  0  0  0
    8.4875   -4.6137    0.0000 O   0  0  0  0  0  0  0  0  0  0  0  0
    9.2019   -4.2012    0.0000 C   0  0  0  0  0  0  0  0  0  0  0  0
    9.2019   -3.3762    0.0000 O   0  0  0  0  0  0  0  0  0  0  0  0
    9.9164   -4.6137    0.0000 C   0  0  0  0  0  0  0  0  0  0  0  0
   10.6309   -4.2012    0.0000 C   0  0  0  0  0  0  0  0  0  0  0  0
   11.3454   -4.6137    0.0000 C   0  0  0  0  0  0  0  0  0  0  0  0
   10.6309   -3.3762    0.0000 C   0  0  0  0  0  0  0  0  0  0  0  0
    7.6750   -5.2955    0.0000 C   0  0  1  0  0  0  0  0  0  0  0  0
    7.3928   -4.5202    0.0000 O   0  0  0  0  0  0  0  0  0  0  0  0
    7.1447   -5.9275    0.0000 C   0  0  2  0  0  0  0  0  0  0  0  0
    6.3322   -5.7842    0.0000 C   0  0  0  0  0  0  0  0  0  0  0  0
    7.4269   -6.7027    0.0000 O   0  0  0  0  0  0  0  0  0  0  0  0
    8.2734   -9.0284    0.0000 C   0  0  1  0  0  0  0  0  0  0  0  0
    7.7431   -9.6604    0.0000 C   0  0  1  0  0  0  0  0  0  0  0  0
    8.0252  -10.4357    0.0000 O   0  0  0  0  0  0  0  0  0  0  0  0
    9.0858   -9.1717    0.0000 N   0  0  0  0  0  0  0  0  0  0  0  0
    9.3680   -9.9469    0.0000 C   0  0  0  0  0  0  0  0  0  0  0  0
    9.6161   -8.5397    0.0000 C   0  0  0  0  0  0  0  0  0  0  0  0
    6.1522  -11.5564    0.0000 O   0  0  0  0  0  0  0  0  0  0  0  0
    6.4343  -12.3316    0.0000 C   0  0  0  0  0  0  0  0  0  0  0  0
    7.2468  -12.4749    0.0000 O   0  0  0  0  0  0  0  0  0  0  0  0
    5.9040  -12.9636    0.0000 C   0  0  0  0  0  0  0  0  0  0  0  0
  1  2  1  0  0  0  0
  3  2  1  6  0  0  0
  3  4  1  0  0  0  0
  4  5  1  0  0  0  0
  5  6  1  0  0  0  0
  6  7  2  0  0  0  0
  6  8  1  0  0  0  0
  8  9  1  0  0  0  0
  9 10  1  6  0  0  0
  9 11  1  0  0  0  0
 11 12  1  0  0  0  0
 12 13  2  0  0  0  0
 13 14  1  0  0  0  0
 14 15  2  0  0  0  0
 15 16  1  0  0  0  0
 16 17  1  6  0  0  0
 16 18  1  0  0  0  0
 18 19  1  6  0  0  0
 18 20  1  0  0  0  0
 20 21  1  0  0  0  0
 21 22  1  6  0  0  0
 22 23  1  0  0  0  0
 23 24  2  0  0  0  0
 21 25  1  0  0  0  0
  3 25  1  0  0  0  0
 25 26  1  6  0  0  0
 27 26  1  6  0  0  0
 27 28  1  0  0  0  0
 28 29  1  0  0  0  0
 29 30  1  6  0  0  0
 29 31  1  0  0  0  0
 31 32  1  1  0  0  0
 33 32  1  6  0  0  0
 33 34  1  0  0  0  0
 34 35  1  0  0  0  0
 35 36  1  1  0  0  0
 35 37  1  6  0  0  0
 37 38  1  0  0  0  0
 38 39  2  0  0  0  0
 38 40  1  0  0  0  0
 40 41  1  0  0  0  0
 41 42  1  0  0  0  0
 41 43  1  0  0  0  0
 35 44  1  0  0  0  0
 44 45  1  6  0  0  0
 44 46  1  0  0  0  0
 46 47  1  1  0  0  0
 46 48  1  0  0  0  0
 33 48  1  0  0  0  0
 31 49  1  0  0  0  0
 49 50  1  0  0  0  0
 27 50  1  0  0  0  0
 50 51  1  1  0  0  0
 49 52  1  6  0  0  0
 52 53  1  0  0  0  0
 52 54  1  0  0  0  0
  4 55  1  6  0  0  0
 55 56  1  0  0  0  0
 56 57  2  0  0  0  0
 56 58  1  0  0  0  0
M  END

> <ChembankId>
3616520

> <SMILES>
CO[C@H]1[C@@H](CC(=O)O[C@H](C)C/C=C/C=C/[C@H](O)[C@H](C)C[C@H](CC=O)[C@@H]1O[C@@H]2O[C@H](C)[C@@H](O[C@H]3C[C@@](C)(OC(=O)CC(C)C)[C@@H](O)[C@H](C)O3)[C@@H]([C@H]2O)N(C)C)OC(=O)C

> <InChI>
1/C42H69NO15/c1-23(2)19-33(48)58-42(8)22-34(53-27(6)40(42)50)56-37-26(5)54-41(36(49)35(37)43(9)10)57-38-29(17-18-44)20-24(3)30(46)16-14-12-13-15-25(4)52-32(47)21-31(39(38)51-11)55-28(7)45/h12-14,16,18,23-27,29-31,34-41,46,49-50H,15,17,19-22H2,1-11H3

$$$$
3616524
  Marvin  11101114192D          

 62 68  0  0  1  0            999 V2000
   12.5599    0.2597    0.0000 C   0  0  0  0  0  0  0  0  0  0  0  0
   11.9087    0.7663    0.0000 C   0  0  0  0  0  0  0  0  0  0  0  0
   11.1444    0.4557    0.0000 C   0  0  2  0  0  0  0  0  0  0  0  0
   11.0313   -0.3615    0.0000 C   0  0  0  0  0  0  0  0  0  0  0  0
   10.4933    0.9623    0.0000 C   0  0  1  0  0  0  0  0  0  0  0  0
    9.7290    0.6516    0.0000 O   0  0  0  0  0  0  0  0  0  0  0  0
    9.0778    1.1582    0.0000 C   0  0  2  0  0  0  0  0  0  0  0  0
    9.1910    1.9754    0.0000 C   0  0  0  0  0  0  0  0  0  0  0  0
    9.9553    2.2861    0.0000 C   0  0  0  0  0  0  0  0  0  0  0  0
   10.6064    1.7795    0.0000 C   0  0  2  0  0  0  0  0  0  0  0  0
   11.3707    2.0901    0.0000 C   0  0  0  0  0  0  0  0  0  0  0  0
    8.4267    1.6648    0.0000 C   0  0  0  0  0  0  0  0  0  0  0  0
    7.6624    1.3542    0.0000 C   0  0  2  0  0  0  0  0  0  0  0  0
    7.5492    0.5370    0.0000 C   0  0  0  0  0  0  0  0  0  0  0  0
    8.2004    0.0304    0.0000 C   0  0  1  0  0  0  0  0  0  0  0  0
    8.0873   -0.7868    0.0000 C   0  0  0  0  0  0  0  0  0  0  0  0
    7.3230   -1.0974    0.0000 C   0  0  0  0  0  0  0  0  0  0  0  0
    7.2098   -1.9146    0.0000 C   0  0  0  0  0  0  0  0  0  0  0  0
    7.8610   -2.4212    0.0000 C   0  0  0  0  0  0  0  0  0  0  0  0
    6.4455   -2.2252    0.0000 C   0  0  1  0  0  0  0  0  0  0  0  0
    6.3324   -3.0425    0.0000 O   0  0  0  0  0  0  0  0  0  0  0  0
    5.5681   -3.3531    0.0000 C   0  0  1  0  0  0  0  0  0  0  0  0
    5.4550   -4.1703    0.0000 C   0  0  0  0  0  0  0  0  0  0  0  0
    4.6907   -4.4809    0.0000 C   0  0  2  0  0  0  0  0  0  0  0  0
    4.5775   -5.2981    0.0000 O   0  0  0  0  0  0  0  0  0  0  0  0
    3.8132   -5.6087    0.0000 C   0  0  0  0  0  0  0  0  0  0  0  0
    4.0395   -3.9743    0.0000 C   0  0  1  0  0  0  0  0  0  0  0  0
    3.2752   -4.2849    0.0000 O   0  0  0  0  0  0  0  0  0  0  0  0
    2.6241   -3.7784    0.0000 C   0  0  1  0  0  0  0  0  0  0  0  0
    1.8598   -4.0890    0.0000 C   0  0  0  0  0  0  0  0  0  0  0  0
    1.2086   -3.5824    0.0000 C   0  0  2  0  0  0  0  0  0  0  0  0
    0.4444   -3.8930    0.0000 O   0  0  0  0  0  0  0  0  0  0  0  0
    0.3312   -4.7102    0.0000 C   0  0  0  0  0  0  0  0  0  0  0  0
    1.3218   -2.7652    0.0000 C   0  0  1  0  0  0  0  0  0  0  0  0
    0.6706   -2.2586    0.0000 O   0  0  0  0  0  0  0  0  0  0  0  0
    2.0861   -2.4546    0.0000 C   0  0  2  0  0  0  0  0  0  0  0  0
    2.1992   -1.6374    0.0000 C   0  0  0  0  0  0  0  0  0  0  0  0
    2.7372   -2.9611    0.0000 O   0  0  0  0  0  0  0  0  0  0  0  0
    4.1527   -3.1571    0.0000 C   0  0  2  0  0  0  0  0  0  0  0  0
    3.5015   -2.6505    0.0000 C   0  0  0  0  0  0  0  0  0  0  0  0
    4.9170   -2.8465    0.0000 O   0  0  0  0  0  0  0  0  0  0  0  0
    5.7944   -1.7187    0.0000 C   0  0  1  0  0  0  0  0  0  0  0  0
    5.0301   -2.0293    0.0000 C   0  0  0  0  0  0  0  0  0  0  0  0
    5.9075   -0.9015    0.0000 C   0  0  0  0  0  0  0  0  0  0  0  0
    5.2564   -0.3949    0.0000 C   0  0  0  0  0  0  0  0  0  0  0  0
    5.3695    0.4223    0.0000 C   0  0  0  0  0  0  0  0  0  0  0  0
    4.7184    0.9289    0.0000 C   0  0  0  0  0  0  0  0  0  0  0  0
    3.8955    0.8697    0.0000 C   0  0  0  0  0  0  0  0  0  0  0  0
    3.5849    1.6340    0.0000 O   0  0  0  0  0  0  0  0  0  0  0  0
    4.2158    2.1656    0.0000 C   0  0  2  0  0  0  0  0  0  0  0  0
    4.2429    2.9901    0.0000 C   0  0  2  0  0  0  0  0  0  0  0  0
    3.5423    3.4259    0.0000 O   0  0  0  0  0  0  0  0  0  0  0  0
    4.9705    3.3789    0.0000 C   0  0  0  0  0  0  0  0  0  0  0  0
    5.6710    2.9432    0.0000 C   0  0  0  0  0  0  0  0  0  0  0  0
    5.5958    2.0567    0.0000 C   0  0  1  0  0  0  0  0  0  0  0  0
    6.2469    1.5502    0.0000 C   0  0  0  0  0  0  0  0  0  0  0  0
    6.1338    0.7330    0.0000 O   0  0  0  0  0  0  0  0  0  0  0  0
    7.0112    1.8608    0.0000 O   0  0  0  0  0  0  0  0  0  0  0  0
    4.8315    1.7461    0.0000 C   0  0  2  0  0  0  0  0  0  0  0  0
    4.9188    2.5665    0.0000 O   0  0  0  0  0  0  0  0  0  0  0  0
    4.9976    4.2035    0.0000 C   0  0  0  0  0  0  0  0  0  0  0  0
    8.9647    0.3410    0.0000 O   0  0  0  0  0  0  0  0  0  0  0  0
  1  2  1  0  0  0  0
  2  3  1  0  0  0  0
  3  4  1  6  0  0  0
  5  3  1  1  0  0  0
  5  6  1  0  0  0  0
  7  6  1  1  0  0  0
  7  8  1  0  0  0  0
  8  9  1  0  0  0  0
  9 10  1  0  0  0  0
  5 10  1  0  0  0  0
 10 11  1  6  0  0  0
  7 12  1  0  0  0  0
 13 12  1  6  0  0  0
 13 14  1  0  0  0  0
 15 14  1  6  0  0  0
 15 16  1  0  0  0  0
 16 17  1  0  0  0  0
 17 18  2  0  0  0  0
 18 19  1  0  0  0  0
 18 20  1  0  0  0  0
 20 21  1  1  0  0  0
 22 21  1  1  0  0  0
 22 23  1  0  0  0  0
 23 24  1  0  0  0  0
 24 25  1  6  0  0  0
 25 26  1  0  0  0  0
 24 27  1  0  0  0  0
 27 28  1  1  0  0  0
 29 28  1  1  0  0  0
 29 30  1  0  0  0  0
 30 31  1  0  0  0  0
 31 32  1  6  0  0  0
 32 33  1  0  0  0  0
 31 34  1  0  0  0  0
 34 35  1  1  0  0  0
 34 36  1  0  0  0  0
 36 37  1  6  0  0  0
 36 38  1  0  0  0  0
 29 38  1  0  0  0  0
 27 39  1  0  0  0  0
 39 40  1  6  0  0  0
 39 41  1  0  0  0  0
 22 41  1  0  0  0  0
 20 42  1  0  0  0  0
 42 43  1  1  0  0  0
 42 44  1  0  0  0  0
 44 45  2  0  0  0  0
 45 46  1  0  0  0  0
 46 47  2  0  0  0  0
 47 48  1  0  0  0  0
 48 49  1  0  0  0  0
 50 49  1  6  0  0  0
 50 51  1  0  0  0  0
 51 52  1  6  0  0  0
 51 53  1  0  0  0  0
 53 54  2  0  0  0  0
 55 54  1  1  0  0  0
 55 56  1  0  0  0  0
 56 57  2  0  0  0  0
 56 58  1  0  0  0  0
 13 58  1  0  0  0  0
 55 59  1  0  0  0  0
 50 59  1  0  0  0  0
 47 59  1  0  0  0  0
 59 60  1  1  0  0  0
 53 61  1  0  0  0  0
 15 62  1  0  0  0  0
  7 62  1  0  0  0  0
M  END

> <ChembankId>
3616524

> <SMILES>
CC[C@H](C)[C@H]1O[C@]2(CC[C@@H]1C)C[C@@H]3C[C@@H](C/C=C(\C)/[C@@H](O[C@H]4C[C@H](OC)[C@@H](O[C@H]5C[C@H](OC)[C@@H](O)[C@H](C)O5)[C@H](C)O4)[C@@H](C)/C=C/C=C/6\CO[C@@H]7[C@H](O)C(=C[C@@H](C(=O)O3)[C@@]76O)C)O2

> <InChI>
1/C48H74O14/c1-11-25(2)43-28(5)17-18-47(62-43)23-34-20-33(61-47)16-15-27(4)42(26(3)13-12-14-32-24-55-45-40(49)29(6)19-35(46(51)58-34)48(32,45)52)59-39-22-37(54-10)44(31(8)57-39)60-38-21-36(53-9)41(50)30(7)56-38/h12-15,19,25-26,28,30-31,33-45,49-50,52H,11,16-18,20-24H2,1-10H3

$$$$
3616717
  Marvin  11101114192D          

 30 32  0  0  1  0            999 V2000
    0.4835    3.2378    0.0000 N   0  0  0  0  0  0  0  0  0  0  0  0
   -0.1576    2.7186    0.0000 C   0  0  0  0  0  0  0  0  0  0  0  0
   -0.1144    1.8948    0.0000 N   0  0  0  0  0  0  0  0  0  0  0  0
   -0.8846    1.5991    0.0000 C   0  0  0  0  0  0  0  0  0  0  0  0
   -1.4038    2.2402    0.0000 C   0  0  0  0  0  0  0  0  0  0  0  0
   -0.9545    2.9322    0.0000 S   0  0  0  0  0  0  0  0  0  0  0  0
   -1.0982    0.8022    0.0000 C   0  0  0  0  0  0  0  0  0  0  0  0
   -1.8950    0.5887    0.0000 N   0  0  0  0  0  0  0  0  0  0  0  0
   -2.1086   -0.2082    0.0000 O   0  0  0  0  0  0  0  0  0  0  0  0
   -2.9055   -0.4217    0.0000 C   0  0  0  0  0  0  0  0  0  0  0  0
   -3.4888    0.1616    0.0000 C   0  0  0  0  0  0  0  0  0  0  0  0
   -3.2753    0.9585    0.0000 O   0  0  0  0  0  0  0  0  0  0  0  0
   -4.2857   -0.0519    0.0000 O   0  0  0  0  0  0  0  0  0  0  0  0
   -0.5148    0.2189    0.0000 C   0  0  0  0  0  0  0  0  0  0  0  0
   -0.7283   -0.5780    0.0000 O   0  0  0  0  0  0  0  0  0  0  0  0
    0.2821    0.4324    0.0000 N   0  0  0  0  0  0  0  0  0  0  0  0
    0.8655   -0.1510    0.0000 C   0  0  1  0  0  0  0  0  0  0  0  0
    1.6905   -0.1510    0.0000 C   0  0  1  0  0  0  0  0  0  0  0  0
    2.4049    0.2615    0.0000 S   0  0  0  0  0  0  0  0  0  0  0  0
    3.1194   -0.1510    0.0000 C   0  0  0  0  0  0  0  0  0  0  0  0
    3.1194   -0.9760    0.0000 C   0  0  0  0  0  0  0  0  0  0  0  0
    2.4049   -1.3885    0.0000 C   0  0  0  0  0  0  0  0  0  0  0  0
    1.6905   -0.9760    0.0000 N   0  0  0  0  0  0  0  0  0  0  0  0
    0.8655   -0.9760    0.0000 C   0  0  0  0  0  0  0  0  0  0  0  0
    0.2821   -1.5593    0.0000 O   0  0  0  0  0  0  0  0  0  0  0  0
    2.4049   -2.2135    0.0000 C   0  0  0  0  0  0  0  0  0  0  0  0
    1.6905   -2.6260    0.0000 O   0  0  0  0  0  0  0  0  0  0  0  0
    3.1194   -2.6260    0.0000 O   0  0  0  0  0  0  0  0  0  0  0  0
    3.8339   -1.3885    0.0000 C   0  0  0  0  0  0  0  0  0  0  0  0
    4.5483   -0.9760    0.0000 C   0  0  0  0  0  0  0  0  0  0  0  0
  1  2  1  0  0  0  0
  2  3  4  0  0  0  0
  3  4  4  0  0  0  0
  4  5  4  0  0  0  0
  5  6  4  0  0  0  0
  2  6  4  0  0  0  0
  4  7  1  0  0  0  0
  7  8  2  0  0  0  0
  8  9  1  0  0  0  0
  9 10  1  0  0  0  0
 10 11  1  0  0  0  0
 11 12  2  0  0  0  0
 11 13  1  0  0  0  0
  7 14  1  0  0  0  0
 14 15  2  0  0  0  0
 14 16  1  0  0  0  0
 17 16  1  1  0  0  0
 17 18  1  0  0  0  0
 18 19  1  0  0  0  0
 19 20  1  0  0  0  0
 20 21  1  0  0  0  0
 21 22  2  0  0  0  0
 22 23  1  0  0  0  0
 18 23  1  1  0  0  0
 23 24  1  0  0  0  0
 17 24  1  0  0  0  0
 24 25  2  0  0  0  0
 22 26  1  0  0  0  0
 26 27  2  0  0  0  0
 26 28  1  0  0  0  0
 21 29  1  0  0  0  0
 29 30  2  0  0  0  0
M  END

> <ChembankId>
3616717

> <SMILES>
Nc1nc(cs1)/C(=N/OCC(=O)O)/C(=O)N[C@H]2[C@H]3SCC(=C(N3C2=O)C(=O)O)C=C

> <InChI>
1/C16H15N5O7S2/c1-2-6-4-29-14-10(13(25)21(14)11(6)15(26)27)19-12(24)9(20-28-3-8(22)23)7-5-30-16(17)18-7/h2,5,10,14H,1,3-4H2,(H2,17,18)(H,19,24)(H,22,23)(H,26,27)

$$$$
3616719
  Marvin  11101114192D          

 32 33  0  0  1  0            999 V2000
    0.7145   -1.2375    0.0000 C   0  0  0  0  0  0  0  0  0  0  0  0
    1.4289   -1.6500    0.0000 N   0  0  0  0  0  0  0  0  0  0  0  0
    2.1434   -1.2375    0.0000 C   0  0  0  0  0  0  0  0  0  0  0  0
    2.1434   -0.4125    0.0000 O   0  0  0  0  0  0  0  0  0  0  0  0
    2.8579   -1.6500    0.0000 C   0  0  0  0  0  0  0  0  0  0  0  0
    1.4289   -2.4750    0.0000 C   0  0  0  0  0  0  0  0  0  0  0  0
    2.1434   -2.8875    0.0000 C   0  0  0  0  0  0  0  0  0  0  0  0
    2.8579   -2.4750    0.0000 I   0  0  0  0  0  0  0  0  0  0  0  0
    2.1434   -3.7125    0.0000 C   0  0  0  0  0  0  0  0  0  0  0  0
    2.8579   -4.1250    0.0000 N   0  0  0  0  0  0  0  0  0  0  0  0
    3.5724   -3.7125    0.0000 C   0  0  0  0  0  0  0  0  0  0  0  0
    3.5724   -2.8875    0.0000 O   0  0  0  0  0  0  0  0  0  0  0  0
    4.2868   -4.1250    0.0000 C   0  0  0  0  0  0  0  0  0  0  0  0
    1.4289   -4.1250    0.0000 C   0  0  0  0  0  0  0  0  0  0  0  0
    1.4289   -4.9500    0.0000 I   0  0  0  0  0  0  0  0  0  0  0  0
    0.7145   -3.7125    0.0000 C   0  0  0  0  0  0  0  0  0  0  0  0
    0.0000   -4.1250    0.0000 C   0  0  0  0  0  0  0  0  0  0  0  0
   -0.7145   -3.7125    0.0000 O   0  0  0  0  0  0  0  0  0  0  0  0
    0.0000   -4.9500    0.0000 N   0  0  0  0  0  0  0  0  0  0  0  0
   -0.7145   -5.3625    0.0000 C   0  0  1  0  0  0  0  0  0  0  0  0
   -0.7145   -6.1875    0.0000 C   0  0  0  0  0  0  0  0  0  0  0  0
   -0.0000   -6.6000    0.0000 O   0  0  0  0  0  0  0  0  0  0  0  0
   -1.4289   -6.6000    0.0000 O   0  0  0  0  0  0  0  0  0  0  0  0
   -2.1434   -6.1875    0.0000 C   0  0  2  0  0  0  0  0  0  0  0  0
   -2.8579   -6.6000    0.0000 C   0  0  0  0  0  0  0  0  0  0  0  0
   -2.8579   -7.4250    0.0000 O   0  0  0  0  0  0  0  0  0  0  0  0
   -2.1434   -5.3625    0.0000 C   0  0  1  0  0  0  0  0  0  0  0  0
   -2.8579   -4.9500    0.0000 O   0  0  0  0  0  0  0  0  0  0  0  0
   -1.4289   -4.9500    0.0000 C   0  0  2  0  0  0  0  0  0  0  0  0
   -1.4289   -4.1250    0.0000 O   0  0  0  0  0  0  0  0  0  0  0  0
    0.7145   -2.8875    0.0000 C   0  0  0  0  0  0  0  0  0  0  0  0
    0.0000   -2.4750    0.0000 I   0  0  0  0  0  0  0  0  0  0  0  0
  1  2  1  0  0  0  0
  2  3  1  0  0  0  0
  3  4  2  0  0  0  0
  3  5  1  0  0  0  0
  2  6  1  0  0  0  0
  6  7  4  0  0  0  0
  7  8  1  0  0  0  0
  7  9  4  0  0  0  0
  9 10  1  0  0  0  0
 10 11  1  0  0  0  0
 11 12  2  0  0  0  0
 11 13  1  0  0  0  0
  9 14  4  0  0  0  0
 14 15  1  0  0  0  0
 14 16  4  0  0  0  0
 16 17  1  0  0  0  0
 17 18  2  0  0  0  0
 17 19  1  0  0  0  0
 20 19  1  1  0  0  0
 20 21  1  0  0  0  0
 21 22  1  0  0  0  0
 21 23  1  0  0  0  0
 23 24  1  0  0  0  0
 24 25  1  6  0  0  0
 25 26  1  0  0  0  0
 24 27  1  0  0  0  0
 27 28  1  1  0  0  0
 27 29  1  0  0  0  0
 20 29  1  0  0  0  0
 29 30  1  6  0  0  0
 16 31  4  0  0  0  0
  6 31  4  0  0  0  0
 31 32  1  0  0  0  0
M  END

> <ChembankId>
3616719

> <SMILES>
CN(C(=O)C)c1c(I)c(NC(=O)C)c(I)c(C(=O)N[C@H]2C(O)O[C@H](CO)[C@@H](O)[C@@H]2O)c1I

> <InChI>
1/C18H22I3N3O8/c1-5(26)22-12-9(19)8(10(20)14(11(12)21)24(3)6(2)27)17(30)23-13-16(29)15(28)7(4-25)32-18(13)31/h7,13,15-16,18,25,28-29,31H,4H2,1-3H3,(H,22,26)(H,23,30)

$$$$
3616735
  Marvin  11101114192D          

 36 40  0  0  1  0            999 V2000
    5.9609   -8.3337    0.0000 C   0  0  0  0  0  0  0  0  0  0  0  0
    5.1404   -8.4200    0.0000 C   0  0  0  0  0  0  0  0  0  0  0  0
    4.8048   -9.1736    0.0000 C   0  0  0  0  0  0  0  0  0  0  0  0
    4.6555   -7.7525    0.0000 N   0  0  0  0  0  0  0  0  0  0  0  0
    3.8350   -7.8388    0.0000 C   0  0  0  0  0  0  0  0  0  0  0  0
    3.3501   -7.1713    0.0000 C   0  0  0  0  0  0  0  0  0  0  0  0
    3.6856   -6.4177    0.0000 N   0  0  0  0  0  0  0  0  0  0  0  0
    4.5061   -6.3314    0.0000 C   0  0  0  0  0  0  0  0  0  0  0  0
    4.9910   -6.9989    0.0000 C   0  0  0  0  0  0  0  0  0  0  0  0
    3.2007   -5.7502    0.0000 C   0  0  0  0  0  0  0  0  0  0  0  0
    2.3802   -5.8365    0.0000 C   0  0  0  0  0  0  0  0  0  0  0  0
    1.8953   -5.1690    0.0000 C   0  0  0  0  0  0  0  0  0  0  0  0
    2.2308   -4.4153    0.0000 C   0  0  0  0  0  0  0  0  0  0  0  0
    1.7459   -3.7479    0.0000 O   0  0  0  0  0  0  0  0  0  0  0  0
    2.0815   -2.9942    0.0000 C   0  0  0  0  0  0  0  0  0  0  0  0
    1.5966   -2.3268    0.0000 C   0  0  1  0  0  0  0  0  0  0  0  0
    0.7716   -2.3268    0.0000 C   0  0  0  0  0  0  0  0  0  0  0  0
    0.5166   -1.5422    0.0000 O   0  0  0  0  0  0  0  0  0  0  0  0
    1.1841   -1.0572    0.0000 C   0  0  1  0  0  0  0  0  0  0  0  0
    0.6320   -0.4441    0.0000 C   0  0  0  0  0  0  0  0  0  0  0  0
   -0.1749   -0.6157    0.0000 N   0  0  0  0  0  0  0  0  0  0  0  0
   -0.7880   -0.0636    0.0000 C   0  0  0  0  0  0  0  0  0  0  0  0
   -1.5025   -0.4761    0.0000 N   0  0  0  0  0  0  0  0  0  0  0  0
   -1.3310   -1.2831    0.0000 C   0  0  0  0  0  0  0  0  0  0  0  0
   -0.5105   -1.3694    0.0000 N   0  0  0  0  0  0  0  0  0  0  0  0
    1.8515   -1.5422    0.0000 O   0  0  0  0  0  0  0  0  0  0  0  0
    1.7361   -0.4441    0.0000 C   0  0  0  0  0  0  0  0  0  0  0  0
    1.4812    0.3405    0.0000 C   0  0  0  0  0  0  0  0  0  0  0  0
    2.0332    0.9536    0.0000 C   0  0  0  0  0  0  0  0  0  0  0  0
    2.8402    0.7820    0.0000 C   0  0  0  0  0  0  0  0  0  0  0  0
    3.3922    1.3951    0.0000 Cl  0  0  0  0  0  0  0  0  0  0  0  0
    3.0951   -0.0026    0.0000 C   0  0  0  0  0  0  0  0  0  0  0  0
    2.5431   -0.6157    0.0000 C   0  0  0  0  0  0  0  0  0  0  0  0
    2.7980   -1.4003    0.0000 Cl  0  0  0  0  0  0  0  0  0  0  0  0
    3.0513   -4.3291    0.0000 C   0  0  0  0  0  0  0  0  0  0  0  0
    3.5362   -4.9965    0.0000 C   0  0  0  0  0  0  0  0  0  0  0  0
  1  2  1  0  0  0  0
  2  3  1  0  0  0  0
  2  4  1  0  0  0  0
  4  5  1  0  0  0  0
  5  6  1  0  0  0  0
  6  7  1  0  0  0  0
  7  8  1  0  0  0  0
  8  9  1  0  0  0  0
  4  9  1  0  0  0  0
  7 10  1  0  0  0  0
 10 11  4  0  0  0  0
 11 12  4  0  0  0  0
 12 13  4  0  0  0  0
 13 14  1  0  0  0  0
 14 15  1  0  0  0  0
 16 15  1  1  0  0  0
 16 17  1  0  0  0  0
 17 18  1  0  0  0  0
 18 19  1  0  0  0  0
 19 20  1  1  0  0  0
 20 21  1  0  0  0  0
 21 22  4  0  0  0  0
 22 23  4  0  0  0  0
 23 24  4  0  0  0  0
 24 25  4  0  0  0  0
 21 25  4  0  0  0  0
 19 26  1  0  0  0  0
 16 26  1  0  0  0  0
 19 27  1  6  0  0  0
 27 28  4  0  0  0  0
 28 29  4  0  0  0  0
 29 30  4  0  0  0  0
 30 31  1  0  0  0  0
 30 32  4  0  0  0  0
 32 33  4  0  0  0  0
 27 33  4  0  0  0  0
 33 34  1  0  0  0  0
 13 35  4  0  0  0  0
 35 36  4  0  0  0  0
 10 36  4  0  0  0  0
M  END

> <ChembankId>
3616735

> <SMILES>
CC(C)N1CCN(CC1)c2ccc(OC[C@H]3CO[C@@](Cn4cncn4)(O3)c5ccc(Cl)cc5Cl)cc2

> <InChI>
1/C26H31Cl2N5O3/c1-19(2)31-9-11-32(12-10-31)21-4-6-22(7-5-21)34-14-23-15-35-26(36-23,16-33-18-29-17-30-33)24-8-3-20(27)13-25(24)28/h3-8,13,17-19,23H,9-12,14-16H2,1-2H3

$$$$
3616747
  Marvin  11101114192D          

 48 53  0  0  1  0            999 V2000
    0.9207   -9.5134    0.0000 C   0  0  0  0  0  0  0  0  0  0  0  0
    1.7312   -9.3597    0.0000 C   0  0  0  0  0  0  0  0  0  0  0  0
    2.0034   -8.5809    0.0000 O   0  0  0  0  0  0  0  0  0  0  0  0
    2.8139   -8.4272    0.0000 C   0  0  0  0  0  0  0  0  0  0  0  0
    3.3523   -9.0523    0.0000 O   0  0  0  0  0  0  0  0  0  0  0  0
    3.0861   -7.6484    0.0000 O   0  0  0  0  0  0  0  0  0  0  0  0
    2.5477   -7.0233    0.0000 C   0  0  0  0  0  0  0  0  0  0  0  0
    1.7371   -7.1770    0.0000 C   0  0  0  0  0  0  0  0  0  0  0  0
    1.4650   -7.9558    0.0000 O   0  0  0  0  0  0  0  0  0  0  0  0
    0.6544   -8.1095    0.0000 C   0  0  0  0  0  0  0  0  0  0  0  0
    1.1987   -6.5519    0.0000 C   0  0  0  0  0  0  0  0  0  0  0  0
    1.4709   -5.7731    0.0000 C   0  0  0  0  0  0  0  0  0  0  0  0
    2.2814   -5.6193    0.0000 C   0  0  0  0  0  0  0  0  0  0  0  0
    2.8198   -6.2444    0.0000 C   0  0  0  0  0  0  0  0  0  0  0  0
    3.6304   -6.0907    0.0000 O   0  0  0  0  0  0  0  0  0  0  0  0
    4.1688   -6.7158    0.0000 C   0  0  0  0  0  0  0  0  0  0  0  0
    0.9324   -5.1480    0.0000 C   0  0  0  0  0  0  0  0  0  0  0  0
    0.1219   -5.3017    0.0000 O   0  0  0  0  0  0  0  0  0  0  0  0
    1.2046   -4.3692    0.0000 O   0  0  0  0  0  0  0  0  0  0  0  0
    2.0151   -4.2154    0.0000 C   0  0  2  0  0  0  0  0  0  0  0  0
    2.5535   -4.8405    0.0000 C   0  0  0  0  0  0  0  0  0  0  0  0
    3.3641   -4.6868    0.0000 C   0  0  2  0  0  0  0  0  0  0  0  0
    3.9025   -5.3119    0.0000 C   0  0  0  0  0  0  0  0  0  0  0  0
    4.7131   -5.1582    0.0000 N   0  0  0  0  0  0  0  0  0  0  0  0
    5.2515   -5.7833    0.0000 C   0  0  0  0  0  0  0  0  0  0  0  0
    6.0620   -5.6295    0.0000 C   0  0  0  0  0  0  0  0  0  0  0  0
    6.3342   -4.8507    0.0000 C   0  0  0  0  0  0  0  0  0  0  0  0
    5.7957   -4.2256    0.0000 C   0  0  0  0  0  0  0  0  0  0  0  0
    6.2239   -3.5204    0.0000 N   0  0  0  0  0  0  0  0  0  0  0  0
    7.0269   -3.7096    0.0000 C   0  0  0  0  0  0  0  0  0  0  0  0
    7.7048   -3.2395    0.0000 C   0  0  0  0  0  0  0  0  0  0  0  0
    8.4509   -3.5916    0.0000 C   0  0  0  0  0  0  0  0  0  0  0  0
    9.1289   -3.1215    0.0000 O   0  0  0  0  0  0  0  0  0  0  0  0
    9.0607   -2.2993    0.0000 C   0  0  0  0  0  0  0  0  0  0  0  0
    8.5191   -4.4138    0.0000 C   0  0  0  0  0  0  0  0  0  0  0  0
    7.8411   -4.8839    0.0000 C   0  0  0  0  0  0  0  0  0  0  0  0
    7.0950   -4.5318    0.0000 C   0  0  0  0  0  0  0  0  0  0  0  0
    4.9852   -4.3793    0.0000 C   0  0  1  0  0  0  0  0  0  0  0  0
    4.4468   -3.7542    0.0000 C   0  0  0  0  0  0  0  0  0  0  0  0
    3.6362   -3.9080    0.0000 C   0  0  2  0  0  0  0  0  0  0  0  0
    3.0978   -3.2829    0.0000 C   0  0  1  0  0  0  0  0  0  0  0  0
    2.2873   -3.4366    0.0000 C   0  0  1  0  0  0  0  0  0  0  0  0
    1.7489   -2.8115    0.0000 O   0  0  0  0  0  0  0  0  0  0  0  0
    0.9383   -2.9652    0.0000 C   0  0  0  0  0  0  0  0  0  0  0  0
    3.3700   -2.5041    0.0000 C   0  0  0  0  0  0  0  0  0  0  0  0
    4.1805   -2.3503    0.0000 O   0  0  0  0  0  0  0  0  0  0  0  0
    2.8316   -1.8790    0.0000 O   0  0  0  0  0  0  0  0  0  0  0  0
    2.0210   -2.0327    0.0000 C   0  0  0  0  0  0  0  0  0  0  0  0
  1  2  1  0  0  0  0
  2  3  1  0  0  0  0
  3  4  1  0  0  0  0
  4  5  2  0  0  0  0
  4  6  1  0  0  0  0
  6  7  1  0  0  0  0
  7  8  4  0  0  0  0
  8  9  1  0  0  0  0
  9 10  1  0  0  0  0
  8 11  4  0  0  0  0
 11 12  4  0  0  0  0
 12 13  4  0  0  0  0
 13 14  4  0  0  0  0
  7 14  4  0  0  0  0
 14 15  1  0  0  0  0
 15 16  1  0  0  0  0
 12 17  1  0  0  0  0
 17 18  2  0  0  0  0
 17 19  1  0  0  0  0
 20 19  1  1  0  0  0
 20 21  1  0  0  0  0
 22 21  1  1  0  0  0
 22 23  1  0  0  0  0
 23 24  1  0  0  0  0
 24 25  1  0  0  0  0
 25 26  1  0  0  0  0
 26 27  1  0  0  0  0
 27 28  4  0  0  0  0
 28 29  4  0  0  0  0
 29 30  4  0  0  0  0
 30 31  4  0  0  0  0
 31 32  4  0  0  0  0
 32 33  1  0  0  0  0
 33 34  1  0  0  0  0
 32 35  4  0  0  0  0
 35 36  4  0  0  0  0
 36 37  4  0  0  0  0
 27 37  4  0  0  0  0
 30 37  4  0  0  0  0
 28 38  1  0  0  0  0
 24 38  1  0  0  0  0
 38 39  1  6  0  0  0
 40 39  1  1  0  0  0
 22 40  1  0  0  0  0
 40 41  1  0  0  0  0
 41 42  1  0  0  0  0
 20 42  1  0  0  0  0
 42 43  1  6  0  0  0
 43 44  1  0  0  0  0
 41 45  1  1  0  0  0
 45 46  2  0  0  0  0
 45 47  1  0  0  0  0
 47 48  1  0  0  0  0
M  STY  1   1 DAT
M  SAL   1  1  29
M  SDT   1 MRV_IMPLICIT_H                                        
M  SDD   1     0.0000    0.0000    DR    ALL  0       0  
M  SED   1 IMPL_H1
M  END

> <ChembankId>
3616747

> <SMILES>
CCOC(=O)Oc1c(OC)cc(cc1OC)C(=O)O[C@@H]2C[C@@H]3CN4CCc5c([nH]c6cc(OC)ccc56)[C@H]4C[C@@H]3[C@@H]([C@H]2OC)C(=O)OC

> <InChI>
1/C35H42N2O11/c1-7-46-35(40)48-31-26(42-3)12-18(13-27(31)43-4)33(38)47-28-14-19-17-37-11-10-22-21-9-8-20(41-2)15-24(21)36-30(22)25(37)16-23(19)29(32(28)44-5)34(39)45-6/h8-9,12-13,15,19,23,25,28-29,32,36H,7,10-11,14,16-17H2,1-6H3

$$$$
3616759
  Marvin  11101114192D          

 40 41  0  0  0  0            999 V2000
    4.2868  -10.7250    0.0000 C   0  0  0  0  0  0  0  0  0  0  0  0
    4.2868   -9.9000    0.0000 N   0  0  0  0  0  0  0  0  0  0  0  0
    3.5724   -9.4875    0.0000 C   0  0  0  0  0  0  0  0  0  0  0  0
    2.8579   -9.9000    0.0000 C   0  0  0  0  0  0  0  0  0  0  0  0
    2.1434   -9.4875    0.0000 C   0  0  0  0  0  0  0  0  0  0  0  0
    1.4289   -9.9000    0.0000 C   0  0  0  0  0  0  0  0  0  0  0  0
    0.7145   -9.4875    0.0000 C   0  0  0  0  0  0  0  0  0  0  0  0
    0.0000   -9.9000    0.0000 C   0  0  0  0  0  0  0  0  0  0  0  0
   -0.7145   -9.4875    0.0000 C   0  0  0  0  0  0  0  0  0  0  0  0
   -1.4289   -9.9000    0.0000 C   0  0  0  0  0  0  0  0  0  0  0  0
   -2.1434   -9.4875    0.0000 C   0  0  0  0  0  0  0  0  0  0  0  0
   -2.8579   -9.9000    0.0000 C   0  0  0  0  0  0  0  0  0  0  0  0
   -3.5724   -9.4875    0.0000 N   0  0  0  0  0  0  0  0  0  0  0  0
   -3.5724   -8.6625    0.0000 C   0  0  0  0  0  0  0  0  0  0  0  0
   -4.2868   -9.9000    0.0000 C   0  0  0  0  0  0  0  0  0  0  0  0
   -4.2868  -10.7250    0.0000 O   0  0  0  0  0  0  0  0  0  0  0  0
   -5.0013   -9.4875    0.0000 O   0  0  0  0  0  0  0  0  0  0  0  0
   -5.7158   -9.9000    0.0000 C   0  0  0  0  0  0  0  0  0  0  0  0
   -5.7158  -10.7250    0.0000 C   0  0  0  0  0  0  0  0  0  0  0  0
   -6.4302  -11.1375    0.0000 C   0  0  0  0  0  0  0  0  0  0  0  0
   -7.1447  -10.7250    0.0000 C   0  0  0  0  0  0  0  0  0  0  0  0
   -7.1447   -9.9000    0.0000 C   0  0  0  0  0  0  0  0  0  0  0  0
   -6.4302   -9.4875    0.0000 C   0  0  0  0  0  0  0  0  0  0  0  0
   -7.8592   -9.4875    0.0000 N   0  3  0  0  0  0  0  0  0  0  0  0
   -8.5737   -9.0750    0.0000 C   0  0  0  0  0  0  0  0  0  0  0  0
   -8.2717  -10.2020    0.0000 C   0  0  0  0  0  0  0  0  0  0  0  0
   -7.4467   -8.7730    0.0000 C   0  0  0  0  0  0  0  0  0  0  0  0
    5.0013   -9.4875    0.0000 C   0  0  0  0  0  0  0  0  0  0  0  0
    5.0013   -8.6625    0.0000 O   0  0  0  0  0  0  0  0  0  0  0  0
    5.7158   -9.9000    0.0000 O   0  0  0  0  0  0  0  0  0  0  0  0
    6.4302   -9.4875    0.0000 C   0  0  0  0  0  0  0  0  0  0  0  0
    6.4302   -8.6625    0.0000 C   0  0  0  0  0  0  0  0  0  0  0  0
    7.1447   -8.2500    0.0000 C   0  0  0  0  0  0  0  0  0  0  0  0
    7.8592   -8.6625    0.0000 C   0  0  0  0  0  0  0  0  0  0  0  0
    7.8592   -9.4875    0.0000 C   0  0  0  0  0  0  0  0  0  0  0  0
    7.1447   -9.9000    0.0000 C   0  0  0  0  0  0  0  0  0  0  0  0
    8.5737   -9.9000    0.0000 N   0  3  0  0  0  0  0  0  0  0  0  0
    9.2881  -10.3125    0.0000 C   0  0  0  0  0  0  0  0  0  0  0  0
    8.1612  -10.6145    0.0000 C   0  0  0  0  0  0  0  0  0  0  0  0
    8.9862   -9.1855    0.0000 C   0  0  0  0  0  0  0  0  0  0  0  0
  1  2  1  0  0  0  0
  2  3  1  0  0  0  0
  3  4  1  0  0  0  0
  4  5  1  0  0  0  0
  5  6  1  0  0  0  0
  6  7  1  0  0  0  0
  7  8  1  0  0  0  0
  8  9  1  0  0  0  0
  9 10  1  0  0  0  0
 10 11  1  0  0  0  0
 11 12  1  0  0  0  0
 12 13  1  0  0  0  0
 13 14  1  0  0  0  0
 13 15  1  0  0  0  0
 15 16  2  0  0  0  0
 15 17  1  0  0  0  0
 17 18  1  0  0  0  0
 18 19  4  0  0  0  0
 19 20  4  0  0  0  0
 20 21  4  0  0  0  0
 21 22  4  0  0  0  0
 22 23  4  0  0  0  0
 18 23  4  0  0  0  0
 22 24  1  0  0  0  0
 24 25  1  0  0  0  0
 24 26  1  0  0  0  0
 24 27  1  0  0  0  0
  2 28  1  0  0  0  0
 28 29  2  0  0  0  0
 28 30  1  0  0  0  0
 30 31  1  0  0  0  0
 31 32  4  0  0  0  0
 32 33  4  0  0  0  0
 33 34  4  0  0  0  0
 34 35  4  0  0  0  0
 35 36  4  0  0  0  0
 31 36  4  0  0  0  0
 35 37  1  0  0  0  0
 37 38  1  0  0  0  0
 37 39  1  0  0  0  0
 37 40  1  0  0  0  0
M  CHG  2  24   1  37   1
M  END

> <ChembankId>
3616759

> <SMILES>
CN(CCCCCCCCCCN(C)C(=O)Oc1cccc(c1)[N+](C)(C)C)C(=O)Oc2cccc(c2)[N+](C)(C)C

> <InChI>
1/C32H52N4O4/c1-33(31(37)39-29-21-17-19-27(25-29)35(3,4)5)23-15-13-11-9-10-12-14-16-24-34(2)32(38)40-30-22-18-20-28(26-30)36(6,7)8/h17-22,25-26H,9-16,23-24H2,1-8H3/q+2

$$$$
3616850
  Marvin  11101114192D          

 33 35  0  0  0  0            999 V2000
    0.8184   -0.9573    0.0000 C   0  0  0  0  0  0  0  0  0  0  0  0
    0.6202   -0.1564    0.0000 N   0  3  0  0  0  0  0  0  0  0  0  0
    0.4220    0.6444    0.0000 C   0  0  0  0  0  0  0  0  0  0  0  0
   -0.1806   -0.3546    0.0000 C   0  0  0  0  0  0  0  0  0  0  0  0
   -0.7527    0.2399    0.0000 C   0  0  0  0  0  0  0  0  0  0  0  0
   -1.5535    0.0417    0.0000 O   0  0  0  0  0  0  0  0  0  0  0  0
   -2.1256    0.6362    0.0000 C   0  0  0  0  0  0  0  0  0  0  0  0
   -2.9264    0.4380    0.0000 C   0  0  0  0  0  0  0  0  0  0  0  0
   -3.4984    1.0325    0.0000 C   0  0  0  0  0  0  0  0  0  0  0  0
   -3.2696    1.8251    0.0000 C   0  0  0  0  0  0  0  0  0  0  0  0
   -2.4688    2.0233    0.0000 C   0  0  0  0  0  0  0  0  0  0  0  0
   -1.8967    1.4288    0.0000 C   0  0  0  0  0  0  0  0  0  0  0  0
    1.4211    0.0417    0.0000 C   0  0  0  0  0  0  0  0  0  0  0  0
    1.9931   -0.5528    0.0000 C   0  0  0  0  0  0  0  0  0  0  0  0
    2.7939   -0.3546    0.0000 C   0  0  0  0  0  0  0  0  0  0  0  0
    3.3660   -0.9491    0.0000 C   0  0  0  0  0  0  0  0  0  0  0  0
    3.1372   -1.7417    0.0000 C   0  0  0  0  0  0  0  0  0  0  0  0
    2.3363   -1.9399    0.0000 C   0  0  0  0  0  0  0  0  0  0  0  0
    1.7643   -1.3454    0.0000 C   0  0  0  0  0  0  0  0  0  0  0  0
    5.4874    0.2652    0.0000 O   0  0  0  0  0  0  0  0  0  0  0  0
    6.2019    0.6777    0.0000 C   0  0  0  0  0  0  0  0  0  0  0  0
    6.2019    1.5027    0.0000 O   0  0  0  0  0  0  0  0  0  0  0  0
    6.9163    0.2652    0.0000 C   0  0  0  0  0  0  0  0  0  0  0  0
    7.6308    0.6777    0.0000 C   0  0  0  0  0  0  0  0  0  0  0  0
    8.3453    0.2652    0.0000 C   0  0  0  0  0  0  0  0  0  0  0  0
    9.0598    0.6777    0.0000 C   0  0  0  0  0  0  0  0  0  0  0  0
    9.7742    0.2652    0.0000 C   0  0  0  0  0  0  0  0  0  0  0  0
    9.7742   -0.5598    0.0000 C   0  0  0  0  0  0  0  0  0  0  0  0
    9.0598   -0.9723    0.0000 C   0  0  0  0  0  0  0  0  0  0  0  0
    8.3453   -0.5598    0.0000 C   0  0  0  0  0  0  0  0  0  0  0  0
    7.6308   -0.9723    0.0000 C   0  0  0  0  0  0  0  0  0  0  0  0
    6.9163   -0.5598    0.0000 C   0  0  0  0  0  0  0  0  0  0  0  0
    6.2019   -0.9723    0.0000 O   0  0  0  0  0  0  0  0  0  0  0  0
  1  2  1  0  0  0  0
  2  3  1  0  0  0  0
  2  4  1  0  0  0  0
  4  5  1  0  0  0  0
  5  6  1  0  0  0  0
  6  7  1  0  0  0  0
  7  8  4  0  0  0  0
  8  9  4  0  0  0  0
  9 10  4  0  0  0  0
 10 11  4  0  0  0  0
 11 12  4  0  0  0  0
  7 12  4  0  0  0  0
  2 13  1  0  0  0  0
 13 14  1  0  0  0  0
 14 15  4  0  0  0  0
 15 16  4  0  0  0  0
 16 17  4  0  0  0  0
 17 18  4  0  0  0  0
 18 19  4  0  0  0  0
 14 19  4  0  0  0  0
 20 21  1  0  0  0  0
 21 22  2  0  0  0  0
 21 23  1  0  0  0  0
 23 24  4  0  0  0  0
 24 25  4  0  0  0  0
 25 26  4  0  0  0  0
 26 27  4  0  0  0  0
 27 28  4  0  0  0  0
 28 29  4  0  0  0  0
 29 30  4  0  0  0  0
 25 30  4  0  0  0  0
 30 31  4  0  0  0  0
 31 32  4  0  0  0  0
 23 32  4  0  0  0  0
 32 33  1  0  0  0  0
M  CHG  1   2   1
M  END

> <ChembankId>
3616850

> <SMILES>
C[N+](C)(CCOc1ccccc1)Cc2ccccc2.OC(=O)c1cc2ccccc2cc1O

> <InChI>
1/C17H22NO.C11H8O3/c1-18(2,15-16-9-5-3-6-10-16)13-14-19-17-11-7-4-8-12-17;12-10-6-8-4-2-1-3-7(8)5-9(10)11(13)14/h3-12H,13-15H2,1-2H3;1-6,12H,(H,13,14)/q+1;

$$$$
3616869
  Marvin  11101114192D          

 18 19  0  0  1  0            999 V2000
    2.0367    1.1759    0.0000 C   0  0  0  0  0  0  0  0  0  0  0  0
    2.7512    0.7634    0.0000 C   0  0  0  0  0  0  0  0  0  0  0  0
    2.7512   -0.0616    0.0000 O   0  0  0  0  0  0  0  0  0  0  0  0
    2.0367   -0.4741    0.0000 C   0  0  0  0  0  0  0  0  0  0  0  0
    1.3222   -0.0616    0.0000 O   0  0  0  0  0  0  0  0  0  0  0  0
    2.0367   -1.2991    0.0000 C   0  0  0  0  0  0  0  0  0  0  0  0
    1.3693   -1.7840    0.0000 C   0  0  0  0  0  0  0  0  0  0  0  0
    1.6242   -2.5687    0.0000 N   0  0  0  0  0  0  0  0  0  0  0  0
    2.4492   -2.5687    0.0000 C   0  0  0  0  0  0  0  0  0  0  0  0
    2.7041   -1.7840    0.0000 N   0  0  0  0  0  0  0  0  0  0  0  0
    3.4888   -1.5291    0.0000 C   0  0  1  0  0  0  0  0  0  0  0  0
    3.6603   -0.7221    0.0000 C   0  0  0  0  0  0  0  0  0  0  0  0
    4.1019   -2.0811    0.0000 C   0  0  0  0  0  0  0  0  0  0  0  0
    4.8865   -1.8262    0.0000 C   0  0  0  0  0  0  0  0  0  0  0  0
    5.4996   -2.3782    0.0000 C   0  0  0  0  0  0  0  0  0  0  0  0
    5.3281   -3.1852    0.0000 C   0  0  0  0  0  0  0  0  0  0  0  0
    4.5434   -3.4401    0.0000 C   0  0  0  0  0  0  0  0  0  0  0  0
    3.9303   -2.8881    0.0000 C   0  0  0  0  0  0  0  0  0  0  0  0
  1  2  1  0  0  0  0
  2  3  1  0  0  0  0
  3  4  1  0  0  0  0
  4  5  2  0  0  0  0
  4  6  1  0  0  0  0
  6  7  4  0  0  0  0
  7  8  4  0  0  0  0
  8  9  4  0  0  0  0
  9 10  4  0  0  0  0
  6 10  4  0  0  0  0
 10 11  1  0  0  0  0
 11 12  1  1  0  0  0
 11 13  1  0  0  0  0
 13 14  4  0  0  0  0
 14 15  4  0  0  0  0
 15 16  4  0  0  0  0
 16 17  4  0  0  0  0
 17 18  4  0  0  0  0
 13 18  4  0  0  0  0
M  END

> <ChembankId>
3616869

> <SMILES>
CCOC(=O)c1cncn1[C@@H](C)c2ccccc2

> <InChI>
1/C14H16N2O2/c1-3-18-14(17)13-9-15-10-16(13)11(2)12-7-5-4-6-8-12/h4-11H,3H2,1-2H3

$$$$
3616904
  Marvin  11101114192D          

 61 66  0  0  1  0            999 V2000
    9.2609   -0.6367    0.0000 C   0  0  0  0  0  0  0  0  0  0  0  0
    9.5020    0.1522    0.0000 C   0  0  0  0  0  0  0  0  0  0  0  0
    8.9453    0.7490    0.0000 C   0  0  0  0  0  0  0  0  0  0  0  0
    9.3623    1.4903    0.0000 C   0  0  0  0  0  0  0  0  0  0  0  0
    8.0729    0.6923    0.0000 N   0  0  0  0  0  0  0  0  0  0  0  0
    7.7748   -0.0770    0.0000 C   0  0  0  0  0  0  0  0  0  0  0  0
    6.9596   -0.2036    0.0000 C   0  0  0  0  0  0  0  0  0  0  0  0
    6.4424    0.4392    0.0000 C   0  0  0  0  0  0  0  0  0  0  0  0
    6.7404    1.2085    0.0000 C   0  0  0  0  0  0  0  0  0  0  0  0
    7.5556    1.3350    0.0000 C   0  0  0  0  0  0  0  0  0  0  0  0
    6.0796   -0.1789    0.0000 N   0  0  0  0  0  0  0  0  0  0  0  0
    5.2512   -0.1632    0.0000 C   0  0  0  0  0  0  0  0  0  0  0  0
    6.0017   -0.5152    0.0000 C   0  0  0  0  0  0  0  0  0  0  0  0
    5.7308   -1.3503    0.0000 N   0  0  0  0  0  0  0  0  0  0  0  0
    5.2127   -2.0368    0.0000 C   0  0  0  0  0  0  0  0  0  0  0  0
    5.7893   -2.6476    0.0000 O   0  0  0  0  0  0  0  0  0  0  0  0
    4.4605   -2.4613    0.0000 C   0  0  0  0  0  0  0  0  0  0  0  0
    3.6092   -2.6282    0.0000 C   0  0  0  0  0  0  0  0  0  0  0  0
    2.7439   -2.5424    0.0000 C   0  0  0  0  0  0  0  0  0  0  0  0
    1.9654   -2.2341    0.0000 C   0  0  0  0  0  0  0  0  0  0  0  0
    1.3005   -1.7363    0.0000 C   0  0  2  0  0  0  0  0  0  0  0  0
    0.6775   -2.2994    0.0000 C   0  0  0  0  0  0  0  0  0  0  0  0
    0.7890   -1.0841    0.0000 C   0  0  2  0  0  0  0  0  0  0  0  0
    0.0019   -1.4937    0.0000 O   0  0  0  0  0  0  0  0  0  0  0  0
    0.4641   -0.3221    0.0000 C   0  0  1  0  0  0  0  0  0  0  0  0
   -0.4069   -0.4957    0.0000 C   0  0  0  0  0  0  0  0  0  0  0  0
    0.3475    0.4979    0.0000 C   0  0  1  0  0  0  0  0  0  0  0  0
   -0.5400    0.5192    0.0000 O   0  0  0  0  0  0  0  0  0  0  0  0
    0.4471    1.3201    0.0000 C   0  0  1  0  0  0  0  0  0  0  0  0
   -0.3994    1.3488    0.0000 C   0  0  0  0  0  0  0  0  0  0  0  0
    0.7561    2.0885    0.0000 C   0  0  2  0  0  0  0  0  0  0  0  0
   -0.0968    2.3654    0.0000 O   0  0  0  0  0  0  0  0  0  0  0  0
   -0.9169    2.5142    0.0000 C   0  0  0  0  0  0  0  0  0  0  0  0
   -1.4504    1.8848    0.0000 O   0  0  0  0  0  0  0  0  0  0  0  0
   -1.1953    3.2908    0.0000 C   0  0  0  0  0  0  0  0  0  0  0  0
    1.2528    2.7503    0.0000 C   0  0  2  0  0  0  0  0  0  0  0  0
    0.6570    3.3628    0.0000 C   0  0  0  0  0  0  0  0  0  0  0  0
    1.9026    3.2609    0.0000 C   0  0  1  0  0  0  0  0  0  0  0  0
    1.6642    4.1097    0.0000 O   0  0  0  0  0  0  0  0  0  0  0  0
    1.8443    4.9107    0.0000 C   0  0  0  0  0  0  0  0  0  0  0  0
    2.6593    3.5890    0.0000 C   0  0  0  0  0  0  0  0  0  0  0  0
    3.4751    3.7123    0.0000 C   0  0  0  0  0  0  0  0  0  0  0  0
    4.2986    3.6349    0.0000 O   0  0  0  0  0  0  0  0  0  0  0  0
    5.0642    3.2996    0.0000 C   0  0  1  0  0  0  0  0  0  0  0  0
    5.3499    4.1060    0.0000 C   0  0  0  0  0  0  0  0  0  0  0  0
    5.8954    3.3824    0.0000 O   0  0  0  0  0  0  0  0  0  0  0  0
    6.2385    2.6088    0.0000 C   0  0  0  0  0  0  0  0  0  0  0  0
    5.6127    2.0500    0.0000 C   0  0  0  0  0  0  0  0  0  0  0  0
    4.8937    2.4819    0.0000 C   0  0  0  0  0  0  0  0  0  0  0  0
    4.1449    2.0739    0.0000 O   0  0  0  0  0  0  0  0  0  0  0  0
    5.7873    1.3142    0.0000 C   0  0  0  0  0  0  0  0  0  0  0  0
    5.1246    0.6520    0.0000 C   0  0  0  0  0  0  0  0  0  0  0  0
    5.8608    1.0243    0.0000 N   0  0  0  0  0  0  0  0  0  0  0  0
    6.5632    0.9094    0.0000 C   0  0  0  0  0  0  0  0  0  0  0  0
    6.6427    0.0517    0.0000 C   0  0  0  0  0  0  0  0  0  0  0  0
    6.9378   -0.8772    0.0000 O   0  0  0  0  0  0  0  0  0  0  0  0
    7.1693    1.5033    0.0000 C   0  0  0  0  0  0  0  0  0  0  0  0
    7.8319    2.0979    0.0000 O   0  0  0  0  0  0  0  0  0  0  0  0
    7.0276    2.3330    0.0000 C   0  0  0  0  0  0  0  0  0  0  0  0
    7.6210    3.0291    0.0000 C   0  0  0  0  0  0  0  0  0  0  0  0
    4.6593   -3.3367    0.0000 C   0  0  0  0  0  0  0  0  0  0  0  0
  1  2  1  0  0  0  0
  2  3  1  0  0  0  0
  3  4  1  0  0  0  0
  3  5  1  0  0  0  0
  5  6  1  0  0  0  0
  6  7  1  0  0  0  0
  7  8  1  0  0  0  0
  8  9  1  0  0  0  0
  9 10  1  0  0  0  0
  5 10  1  0  0  0  0
  8 11  1  0  0  0  0
 11 12  1  0  0  0  0
 12 13  2  0  0  0  0
 13 14  1  0  0  0  0
 14 15  1  0  0  0  0
 15 16  2  0  0  0  0
 15 17  1  0  0  0  0
 17 18  2  0  0  0  0
 18 19  1  0  0  0  0
 19 20  2  0  0  0  0
 20 21  1  0  0  0  0
 21 22  1  6  0  0  0
 21 23  1  0  0  0  0
 23 24  1  6  0  0  0
 23 25  1  0  0  0  0
 25 26  1  1  0  0  0
 25 27  1  0  0  0  0
 27 28  1  1  0  0  0
 27 29  1  0  0  0  0
 29 30  1  1  0  0  0
 29 31  1  0  0  0  0
 31 32  1  6  0  0  0
 32 33  1  0  0  0  0
 33 34  2  0  0  0  0
 33 35  1  0  0  0  0
 31 36  1  0  0  0  0
 36 37  1  6  0  0  0
 36 38  1  0  0  0  0
 38 39  1  1  0  0  0
 39 40  1  0  0  0  0
 38 41  1  0  0  0  0
 41 42  2  0  0  0  0
 42 43  1  0  0  0  0
 43 44  1  0  0  0  0
 44 45  1  6  0  0  0
 44 46  1  0  0  0  0
 46 47  1  0  0  0  0
 47 48  4  0  0  0  0
 48 49  1  0  0  0  0
 44 49  1  0  0  0  0
 49 50  2  0  0  0  0
 48 51  4  0  0  0  0
 51 52  1  0  0  0  0
 12 52  1  0  0  0  0
 52 53  2  0  0  0  0
  8 53  1  0  0  0  0
 51 54  4  0  0  0  0
 54 55  1  0  0  0  0
 13 55  1  0  0  0  0
 55 56  2  0  0  0  0
 54 57  4  0  0  0  0
 57 58  1  0  0  0  0
 57 59  4  0  0  0  0
 47 59  4  0  0  0  0
 59 60  1  0  0  0  0
 17 61  1  0  0  0  0
M  END

> <ChembankId>
3616904

> <SMILES>
CCC(C)N1CCC2(CC1)NC3=C4NC(=O)/C(=C/C=C/[C@H](C)[C@H](O)[C@@H](C)[C@@H](O)[C@@H](C)[C@H](OC(=O)C)[C@H](C)[C@@H](OC)/C=C/O[C@@]5(C)Oc6c(C5=O)c(C3=N2)c(C4=O)c(O)c6C)/C

> <InChI>
1/C46H62N4O11/c1-12-24(4)50-19-17-46(18-20-50)48-34-31-32-39(54)28(8)42-33(31)43(56)45(10,61-42)59-21-16-30(58-11)25(5)41(60-29(9)51)27(7)38(53)26(6)37(52)22(2)14-13-15-23(3)44(57)47-36(40(32)55)35(34)49-46/h13-16,21-22,24-27,30,37-38,41,49,52-54H,12,17-20H2,1-11H3,(H,47,57)

$$$$
3616961
  Marvin  11101114192D          

 16 18  0  0  1  0            999 V2000
    0.7145   -3.7125    0.0000 C   0  0  0  0  0  0  0  0  0  0  0  0
    0.7145   -2.8875    0.0000 C   0  0  0  0  0  0  0  0  0  0  0  0
    1.4289   -2.4750    0.0000 C   0  0  0  0  0  0  0  0  0  0  0  0
    1.4289   -1.6500    0.0000 N   0  0  0  0  0  0  0  0  0  0  0  0
    0.7145   -1.2375    0.0000 C   0  0  0  0  0  0  0  0  0  0  0  0
    0.7145   -0.4125    0.0000 C   0  0  0  0  0  0  0  0  0  0  0  0
    1.4289    0.0000    0.0000 C   0  0  0  0  0  0  0  0  0  0  0  0
    2.1434   -0.4125    0.0000 C   0  0  1  0  0  0  0  0  0  0  0  0
    2.8579    0.0000    0.0000 C   0  0  0  0  0  0  0  0  0  0  0  0
    3.5724   -0.4125    0.0000 C   0  0  0  0  0  0  0  0  0  0  0  0
    4.3570   -0.1576    0.0000 N   0  0  0  0  0  0  0  0  0  0  0  0
    4.8419   -0.8250    0.0000 N   0  0  0  0  0  0  0  0  0  0  0  0
    4.3570   -1.4924    0.0000 C   0  0  0  0  0  0  0  0  0  0  0  0
    3.5724   -1.2375    0.0000 C   0  0  0  0  0  0  0  0  0  0  0  0
    2.8579   -1.6500    0.0000 C   0  0  0  0  0  0  0  0  0  0  0  0
    2.1434   -1.2375    0.0000 C   0  0  2  0  0  0  0  0  0  0  0  0
  1  2  1  0  0  0  0
  2  3  1  0  0  0  0
  3  4  1  0  0  0  0
  4  5  1  0  0  0  0
  5  6  1  0  0  0  0
  6  7  1  0  0  0  0
  7  8  1  0  0  0  0
  8  9  1  1  0  0  0
  9 10  1  0  0  0  0
 10 11  4  0  0  0  0
 11 12  4  0  0  0  0
 12 13  4  0  0  0  0
 13 14  4  0  0  0  0
 10 14  4  0  0  0  0
 14 15  1  0  0  0  0
 15 16  1  0  0  0  0
  8 16  1  0  0  0  0
 16  4  1  6  0  0  0
M  STY  1   1 DAT
M  SAL   1  1  11
M  SDT   1 MRV_IMPLICIT_H                                        
M  SDD   1     0.0000    0.0000    DR    ALL  0       0  
M  SED   1 IMPL_H1
M  END

> <ChembankId>
3616961

> <SMILES>
CCCN1CCC[C@H]2Cc3[nH]ncc3C[C@@H]21

> <InChI>
1/C13H21N3/c1-2-5-16-6-3-4-10-7-12-11(8-13(10)16)9-14-15-12/h9-10,13H,2-8H2,1H3,(H,14,15)

$$$$
3652996
  Marvin  11101114192D          

 13 14  0  0  0  0            999 V2000
    0.0000   -1.6500    0.0000 C   0  0  0  0  0  0  0  0  0  0  0  0
    0.7145   -1.2375    0.0000 C   0  0  0  0  0  0  0  0  0  0  0  0
    0.7145   -0.4125    0.0000 N   0  0  0  0  0  0  0  0  0  0  0  0
    1.4289    0.0000    0.0000 C   0  0  0  0  0  0  0  0  0  0  0  0
    1.4289    0.8250    0.0000 O   0  0  0  0  0  0  0  0  0  0  0  0
    2.1434   -0.4125    0.0000 C   0  0  0  0  0  0  0  0  0  0  0  0
    2.8579    0.0000    0.0000 C   0  0  0  0  0  0  0  0  0  0  0  0
    3.5724   -0.4125    0.0000 C   0  0  0  0  0  0  0  0  0  0  0  0
    3.5724   -1.2375    0.0000 C   0  0  0  0  0  0  0  0  0  0  0  0
    2.8579   -1.6500    0.0000 C   0  0  0  0  0  0  0  0  0  0  0  0
    2.8579   -2.4750    0.0000 O   0  0  0  0  0  0  0  0  0  0  0  0
    2.1434   -1.2375    0.0000 C   0  0  0  0  0  0  0  0  0  0  0  0
    1.4289   -1.6500    0.0000 N   0  0  0  0  0  0  0  0  0  0  0  0
  1  2  1  0  0  0  0
  2  3  4  0  0  0  0
  3  4  4  0  0  0  0
  4  5  2  0  0  0  0
  4  6  4  0  0  0  0
  6  7  4  0  0  0  0
  7  8  4  0  0  0  0
  8  9  4  0  0  0  0
  9 10  4  0  0  0  0
 10 11  1  0  0  0  0
 10 12  4  0  0  0  0
  6 12  4  0  0  0  0
 12 13  4  0  0  0  0
  2 13  4  0  0  0  0
M  STY  1   1 DAT
M  SAL   1  1  13
M  SDT   1 MRV_IMPLICIT_H                                        
M  SDD   1     0.0000    0.0000    DR    ALL  0       0  
M  SED   1 IMPL_H1
M  END

> <ChembankId>
3652996

> <SMILES>
Cc1nc(=O)c2cccc(O)c2[nH]1

> <InChI>


$$$$
3652997
  Marvin  11101114192D          

 24 26  0  0  0  0            999 V2000
    3.8989   -4.4309    0.0000 C   0  0  0  0  0  0  0  0  0  0  0  0
    3.0919   -4.6024    0.0000 S   0  0  0  0  0  0  0  0  0  0  0  0
    2.5399   -3.9893    0.0000 C   0  0  0  0  0  0  0  0  0  0  0  0
    1.7329   -4.1608    0.0000 C   0  0  0  0  0  0  0  0  0  0  0  0
    1.1809   -3.5477    0.0000 C   0  0  0  0  0  0  0  0  0  0  0  0
    1.4358   -2.7631    0.0000 C   0  0  0  0  0  0  0  0  0  0  0  0
    0.8838   -2.1500    0.0000 C   0  0  0  0  0  0  0  0  0  0  0  0
    1.1387   -1.3654    0.0000 C   0  0  0  0  0  0  0  0  0  0  0  0
    0.6538   -0.6979    0.0000 C   0  0  0  0  0  0  0  0  0  0  0  0
    1.1387   -0.0305    0.0000 C   0  0  0  0  0  0  0  0  0  0  0  0
    0.8838    0.7541    0.0000 C   0  0  0  0  0  0  0  0  0  0  0  0
    1.4358    1.3672    0.0000 C   0  0  0  0  0  0  0  0  0  0  0  0
    1.1809    2.1518    0.0000 O   0  0  0  0  0  0  0  0  0  0  0  0
    2.2428    1.1957    0.0000 O   0  0  0  0  0  0  0  0  0  0  0  0
    1.9233   -0.2854    0.0000 C   0  0  0  0  0  0  0  0  0  0  0  0
    2.6378    0.1271    0.0000 C   0  0  0  0  0  0  0  0  0  0  0  0
    3.3523   -0.2854    0.0000 C   0  0  0  0  0  0  0  0  0  0  0  0
    4.0668    0.1271    0.0000 F   0  0  0  0  0  0  0  0  0  0  0  0
    3.3523   -1.1104    0.0000 C   0  0  0  0  0  0  0  0  0  0  0  0
    2.6378   -1.5229    0.0000 C   0  0  0  0  0  0  0  0  0  0  0  0
    1.9233   -1.1104    0.0000 C   0  0  0  0  0  0  0  0  0  0  0  0
   -0.1712   -0.6979    0.0000 C   0  0  0  0  0  0  0  0  0  0  0  0
    2.2428   -2.5916    0.0000 C   0  0  0  0  0  0  0  0  0  0  0  0
    2.7948   -3.2047    0.0000 C   0  0  0  0  0  0  0  0  0  0  0  0
  1  2  1  0  0  0  0
  2  3  1  0  0  0  0
  3  4  4  0  0  0  0
  4  5  4  0  0  0  0
  5  6  4  0  0  0  0
  7  6  1  4  0  0  0
  7  8  2  0  0  0  0
  8  9  1  0  0  0  0
  9 10  2  0  0  0  0
 10 11  1  0  0  0  0
 11 12  1  0  0  0  0
 12 13  2  0  0  0  0
 12 14  1  0  0  0  0
 10 15  1  0  0  0  0
 15 16  4  0  0  0  0
 16 17  4  0  0  0  0
 17 18  1  0  0  0  0
 17 19  4  0  0  0  0
 19 20  4  0  0  0  0
 20 21  4  0  0  0  0
  8 21  1  0  0  0  0
 15 21  4  0  0  0  0
  9 22  1  0  0  0  0
  6 23  4  0  0  0  0
 23 24  4  0  0  0  0
  3 24  4  0  0  0  0
M  END

> <ChembankId>
3652997

> <SMILES>
CSc1ccc(C=C2C(=C(CC(=O)O)c3cc(F)ccc23)C)cc1

> <InChI>


$$$$
3652998
  Marvin  11101114192D          

 39 45  0  0  1  0            999 V2000
   -0.2568   -5.2739    0.0000 C   0  0  0  0  0  0  0  0  0  0  0  0
   -0.7409   -4.6059    0.0000 C   0  0  0  0  0  0  0  0  0  0  0  0
   -0.4044   -3.8526    0.0000 C   0  0  0  0  0  0  0  0  0  0  0  0
   -1.5615   -4.6911    0.0000 C   0  0  1  0  0  0  0  0  0  0  0  0
   -1.5605   -3.8661    0.0000 N   0  0  0  0  0  0  0  0  0  0  0  0
   -0.8455   -3.4545    0.0000 C   0  0  0  0  0  0  0  0  0  0  0  0
   -0.0387   -3.6270    0.0000 O   0  0  0  0  0  0  0  0  0  0  0  0
   -0.8445   -2.6295    0.0000 C   0  0  2  0  0  0  0  0  0  0  0  0
   -0.1296   -2.2179    0.0000 C   0  0  0  0  0  0  0  0  0  0  0  0
   -0.1286   -1.3929    0.0000 C   0  0  1  0  0  0  0  0  0  0  0  0
   -0.8425   -0.9795    0.0000 C   0  0  1  0  0  0  0  0  0  0  0  0
   -0.8411   -0.1554    0.0000 C   0  0  0  0  0  0  0  0  0  0  0  0
   -0.1286    0.2571    0.0000 C   0  0  0  0  0  0  0  0  0  0  0  0
    0.1714    1.1143    0.0000 C   0  0  0  0  0  0  0  0  0  0  0  0
    0.9964    1.1143    0.0000 N   0  0  0  0  0  0  0  0  0  0  0  0
    1.3018    0.2571    0.0000 C   0  0  0  0  0  0  0  0  0  0  0  0
    2.0143   -0.1554    0.0000 C   0  0  0  0  0  0  0  0  0  0  0  0
    2.0143   -0.9804    0.0000 C   0  0  0  0  0  0  0  0  0  0  0  0
    1.3018   -1.3929    0.0000 C   0  0  0  0  0  0  0  0  0  0  0  0
    0.5839   -0.9804    0.0000 C   0  0  0  0  0  0  0  0  0  0  0  0
    0.5839   -0.1554    0.0000 C   0  0  0  0  0  0  0  0  0  0  0  0
   -1.5575   -1.3911    0.0000 N   0  0  0  0  0  0  0  0  0  0  0  0
   -2.2715   -0.9778    0.0000 C   0  0  0  0  0  0  0  0  0  0  0  0
   -1.5585   -2.2161    0.0000 C   0  0  0  0  0  0  0  0  0  0  0  0
   -1.3909   -5.4983    0.0000 O   0  0  0  0  0  0  0  0  0  0  0  0
   -2.1059   -5.9100    0.0000 C   0  0  1  0  0  0  0  0  0  0  0  0
   -1.4390   -6.3957    0.0000 O   0  0  0  0  0  0  0  0  0  0  0  0
   -2.2784   -6.7167    0.0000 C   0  0  2  0  0  0  0  0  0  0  0  0
   -1.7942   -7.3848    0.0000 C   0  0  0  0  0  0  0  0  0  0  0  0
   -2.2800   -8.0516    0.0000 C   0  0  0  0  0  0  0  0  0  0  0  0
   -3.0643   -7.7957    0.0000 C   0  0  0  0  0  0  0  0  0  0  0  0
   -3.0633   -6.9707    0.0000 N   0  0  0  0  0  0  0  0  0  0  0  0
   -3.6757   -6.4180    0.0000 C   0  0  0  0  0  0  0  0  0  0  0  0
   -4.4606   -6.6720    0.0000 O   0  0  0  0  0  0  0  0  0  0  0  0
   -3.5032   -5.6112    0.0000 C   0  0  2  0  0  0  0  0  0  0  0  0
   -4.1157   -5.0584    0.0000 C   0  0  0  0  0  0  0  0  0  0  0  0
   -2.7183   -5.3572    0.0000 N   0  0  0  0  0  0  0  0  0  0  0  0
   -2.3818   -4.6039    0.0000 C   0  0  0  0  0  0  0  0  0  0  0  0
   -2.7935   -3.8890    0.0000 O   0  0  0  0  0  0  0  0  0  0  0  0
  1  2  1  0  0  0  0
  2  3  1  0  0  0  0
  4  2  1  1  0  0  0
  4  5  1  6  0  0  0
  5  6  1  0  0  0  0
  6  7  2  0  0  0  0
  8  6  1  1  0  0  0
  8  9  1  0  0  0  0
 10  9  1  1  0  0  0
 10 11  1  0  0  0  0
 11 12  1  0  0  0  0
 12 13  1  0  0  0  0
 13 14  4  0  0  0  0
 14 15  4  0  0  0  0
 15 16  4  0  0  0  0
 16 17  4  0  0  0  0
 17 18  4  0  0  0  0
 18 19  4  0  0  0  0
 19 20  4  0  0  0  0
 10 20  1  0  0  0  0
 20 21  4  0  0  0  0
 13 21  4  0  0  0  0
 16 21  4  0  0  0  0
 11 22  1  6  0  0  0
 22 23  1  0  0  0  0
 22 24  1  0  0  0  0
  8 24  1  0  0  0  0
  4 25  1  0  0  0  0
 25 26  1  0  0  0  0
 26 27  1  6  0  0  0
 26 28  1  0  0  0  0
 28 29  1  0  0  0  0
 29 30  1  0  0  0  0
 30 31  1  0  0  0  0
 31 32  1  0  0  0  0
 28 32  1  6  0  0  0
 32 33  1  0  0  0  0
 33 34  2  0  0  0  0
 33 35  1  0  0  0  0
 35 36  1  6  0  0  0
 35 37  1  0  0  0  0
 26 37  1  0  0  0  0
 37 38  1  0  0  0  0
  4 38  1  0  0  0  0
 38 39  2  0  0  0  0
M  STY  1   1 DAT
M  SAL   1  1  15
M  SDT   1 MRV_IMPLICIT_H                                        
M  SDD   1     0.0000    0.0000    DR    ALL  0       0  
M  SED   1 IMPL_H1
M  END

> <ChembankId>
3652998

> <SMILES>
CC(C)[C@@]1(NC(=O)[C@@H]2C[C@H]3[C@@H](Cc4c[nH]c5cccc3c45)N(C)C2)O[C@@]6(O)[C@@H]7CCCN7C(=O)[C@H](C)N6C1=O

> <InChI>


$$$$
3213944
  Marvin  11101114202D          

 18 18  0  0  0  0            999 V2000
   -4.4212   -5.7065    0.0000 O   0  0  0  0  0  0  0  0  0  0  0  0
   -3.7067   -6.1190    0.0000 C   0  0  0  0  0  0  0  0  0  0  0  0
   -3.7067   -6.9440    0.0000 O   0  0  0  0  0  0  0  0  0  0  0  0
   -2.9923   -5.7065    0.0000 C   0  0  0  0  0  0  0  0  0  0  0  0
   -2.2778   -6.1190    0.0000 C   0  0  0  0  0  0  0  0  0  0  0  0
   -1.5633   -5.7065    0.0000 C   0  0  0  0  0  0  0  0  0  0  0  0
   -0.8488   -6.1190    0.0000 C   0  0  0  0  0  0  0  0  0  0  0  0
   -0.1344   -5.7065    0.0000 C   0  0  0  0  0  0  0  0  0  0  0  0
    0.5801   -6.1190    0.0000 C   0  0  0  0  0  0  0  0  0  0  0  0
    0.5801   -6.9440    0.0000 O   0  0  0  0  0  0  0  0  0  0  0  0
    1.2946   -5.7065    0.0000 N   0  0  0  0  0  0  0  0  0  0  0  0
    2.0090   -6.1190    0.0000 N   0  0  0  0  0  0  0  0  0  0  0  0
    2.7235   -5.7065    0.0000 C   0  0  0  0  0  0  0  0  0  0  0  0
    3.4380   -6.1190    0.0000 C   0  0  0  0  0  0  0  0  0  0  0  0
    4.1917   -5.7835    0.0000 C   0  0  0  0  0  0  0  0  0  0  0  0
    4.7437   -6.3966    0.0000 C   0  0  0  0  0  0  0  0  0  0  0  0
    4.3312   -7.1110    0.0000 C   0  0  0  0  0  0  0  0  0  0  0  0
    3.5242   -6.9395    0.0000 S   0  0  0  0  0  0  0  0  0  0  0  0
  1  2  1  0  0  0  0
  2  3  2  0  0  0  0
  2  4  1  0  0  0  0
  4  5  1  0  0  0  0
  5  6  1  0  0  0  0
  6  7  1  0  0  0  0
  7  8  1  0  0  0  0
  8  9  1  0  0  0  0
  9 10  2  0  0  0  0
  9 11  1  0  0  0  0
 11 12  1  0  0  0  0
 12 13  2  0  0  0  0
 13 14  1  0  0  0  0
 14 15  4  0  0  0  0
 15 16  4  0  0  0  0
 16 17  4  0  0  0  0
 17 18  4  0  0  0  0
 14 18  4  0  0  0  0
M  END

> <ChembankId>
3213944

> <SMILES>
OC(=O)CCCCCC(=O)N/N=C/c1cccs1

> <InChI>
1/C12H16N2O3S/c15-11(6-2-1-3-7-12(16)17)14-13-9-10-5-4-8-18-10/h4-5,8-9H,1-3,6-7H2,(H,14,15)(H,16,17)/b13-9+

$$$$
9
  Marvin  11101114202D          

 22 25  0  0  0  0            999 V2000
   -3.4301   -0.7465    0.0000 O   0  5  0  0  0  0  0  0  0  0  0  0
   -2.7391   -0.2959    0.0000 N   0  3  0  0  0  0  0  0  0  0  0  0
   -2.7838    0.5279    0.0000 O   0  0  0  0  0  0  0  0  0  0  0  0
   -2.0033   -0.6690    0.0000 C   0  0  0  0  0  0  0  0  0  0  0  0
   -1.9586   -1.4928    0.0000 C   0  0  0  0  0  0  0  0  0  0  0  0
   -1.2228   -1.8660    0.0000 C   0  0  0  0  0  0  0  0  0  0  0  0
   -0.5317   -1.4154    0.0000 C   0  0  0  0  0  0  0  0  0  0  0  0
    0.2656   -1.6274    0.0000 N   0  0  0  0  0  0  0  0  0  0  0  0
    0.7136   -0.9346    0.0000 C   0  0  0  0  0  0  0  0  0  0  0  0
    0.1932   -0.2945    0.0000 C   0  0  0  0  0  0  0  0  0  0  0  0
    0.3692    0.5115    0.0000 C   0  0  0  0  0  0  0  0  0  0  0  0
    1.1091    0.8764    0.0000 C   0  0  0  0  0  0  0  0  0  0  0  0
    1.1014    1.7014    0.0000 O   0  0  0  0  0  0  0  0  0  0  0  0
    1.8558    0.5255    0.0000 N   0  0  0  0  0  0  0  0  0  0  0  0
    2.0469   -0.2771    0.0000 C   0  0  0  0  0  0  0  0  0  0  0  0
    2.8638   -0.3924    0.0000 C   0  0  0  0  0  0  0  0  0  0  0  0
    3.1724   -1.1575    0.0000 C   0  0  0  0  0  0  0  0  0  0  0  0
    2.6640   -1.8073    0.0000 C   0  0  0  0  0  0  0  0  0  0  0  0
    1.8471   -1.6920    0.0000 C   0  0  0  0  0  0  0  0  0  0  0  0
    1.5386   -0.9269    0.0000 C   0  0  0  0  0  0  0  0  0  0  0  0
   -0.5765   -0.5916    0.0000 C   0  0  0  0  0  0  0  0  0  0  0  0
   -1.3122   -0.2184    0.0000 C   0  0  0  0  0  0  0  0  0  0  0  0
  1  2  1  0  0  0  0
  2  3  2  0  0  0  0
  2  4  1  0  0  0  0
  4  5  4  0  0  0  0
  5  6  4  0  0  0  0
  6  7  4  0  0  0  0
  7  8  4  0  0  0  0
  8  9  4  0  0  0  0
  9 10  4  0  0  0  0
 10 11  1  0  0  0  0
 11 12  1  0  0  0  0
 12 13  2  0  0  0  0
 12 14  1  0  0  0  0
 14 15  1  0  0  0  0
 15 16  4  0  0  0  0
 16 17  4  0  0  0  0
 17 18  4  0  0  0  0
 18 19  4  0  0  0  0
 19 20  4  0  0  0  0
  9 20  1  0  0  0  0
 15 20  4  0  0  0  0
 10 21  4  0  0  0  0
  7 21  4  0  0  0  0
 21 22  4  0  0  0  0
  4 22  4  0  0  0  0
M  CHG  2   1  -1   2   1
M  STY  1   1 DAT
M  SAL   1  1   8
M  SDT   1 MRV_IMPLICIT_H                                        
M  SDD   1     0.0000    0.0000    DR    ALL  0       0  
M  SED   1 IMPL_H1
M  END

> <ChembankId>
9

> <SMILES>
[O-][N+](=O)c1ccc2[nH]c-3c(CC(=O)Nc4ccccc34)c2c1

> <InChI>
1/C16H11N3O3/c20-15-8-12-11-7-9(19(21)22)5-6-14(11)18-16(12)10-3-1-2-4-13(10)17-15/h1-7,18H,8H2,(H,17,20)

$$$$
193
  Marvin  11101114202D          

 46 52  0  0  1  0            999 V2000
    6.4419    4.0840    0.0000 C   0  0  0  0  0  0  0  0  0  0  0  0
    7.2517    4.2413    0.0000 O   0  0  0  0  0  0  0  0  0  0  0  0
    7.7929    3.6185    0.0000 C   0  0  0  0  0  0  0  0  0  0  0  0
    8.6036    3.7732    0.0000 C   0  0  0  0  0  0  0  0  0  0  0  0
    9.1533    3.1414    0.0000 C   0  0  0  0  0  0  0  0  0  0  0  0
    9.9508    3.3900    0.0000 C   0  0  0  0  0  0  0  0  0  0  0  0
   10.5604    2.8363    0.0000 C   0  0  0  0  0  0  0  0  0  0  0  0
   10.3806    2.0299    0.0000 N   0  0  0  0  0  0  0  0  0  0  0  0
   11.0025    1.4877    0.0000 C   0  0  0  0  0  0  0  0  0  0  0  0
    9.5886    1.7353    0.0000 C   0  0  1  0  0  0  0  0  0  0  0  0
    9.9090    0.9154    0.0000 C   0  0  0  0  0  0  0  0  0  0  0  0
   10.4843    0.2518    0.0000 C   0  0  0  0  0  0  0  0  0  0  0  0
   11.3282    0.1479    0.0000 C   0  0  0  0  0  0  0  0  0  0  0  0
   11.6975   -0.6013    0.0000 C   0  0  0  0  0  0  0  0  0  0  0  0
   11.2189   -1.2841    0.0000 C   0  0  0  0  0  0  0  0  0  0  0  0
   11.5840   -2.0239    0.0000 O   0  0  0  0  0  0  0  0  0  0  0  0
   11.1258   -2.7100    0.0000 C   0  0  0  0  0  0  0  0  0  0  0  0
   10.3780   -1.2483    0.0000 C   0  0  0  0  0  0  0  0  0  0  0  0
    9.8276   -1.9098    0.0000 O   0  0  0  0  0  0  0  0  0  0  0  0
    9.0421   -2.2532    0.0000 C   0  0  0  0  0  0  0  0  0  0  0  0
    8.7113   -1.4838    0.0000 C   0  0  0  0  0  0  0  0  0  0  0  0
    7.8944   -1.3614    0.0000 C   0  0  0  0  0  0  0  0  0  0  0  0
    7.3410   -1.9844    0.0000 C   0  0  0  0  0  0  0  0  0  0  0  0
    6.6501   -1.4610    0.0000 C   0  0  0  0  0  0  0  0  0  0  0  0
    5.9613   -0.9420    0.0000 C   0  0  2  0  0  0  0  0  0  0  0  0
    5.2321   -1.3619    0.0000 N   0  0  0  0  0  0  0  0  0  0  0  0
    5.2466   -2.1868    0.0000 C   0  0  0  0  0  0  0  0  0  0  0  0
    4.4962   -0.9719    0.0000 C   0  0  0  0  0  0  0  0  0  0  0  0
    4.4700   -0.1439    0.0000 C   0  0  0  0  0  0  0  0  0  0  0  0
    5.1782    0.2978    0.0000 C   0  0  0  0  0  0  0  0  0  0  0  0
    5.1143    1.1309    0.0000 C   0  0  0  0  0  0  0  0  0  0  0  0
    5.8109    1.5890    0.0000 C   0  0  0  0  0  0  0  0  0  0  0  0
    5.7378    2.4108    0.0000 O   0  0  0  0  0  0  0  0  0  0  0  0
    4.9896    2.7584    0.0000 C   0  0  0  0  0  0  0  0  0  0  0  0
    6.5879    1.2565    0.0000 C   0  0  0  0  0  0  0  0  0  0  0  0
    7.3777    1.6243    0.0000 O   0  0  0  0  0  0  0  0  0  0  0  0
    8.0578    2.1800    0.0000 C   0  0  0  0  0  0  0  0  0  0  0  0
    7.5265    2.8370    0.0000 C   0  0  0  0  0  0  0  0  0  0  0  0
    6.7142    2.6928    0.0000 O   0  0  0  0  0  0  0  0  0  0  0  0
    6.1831    3.3241    0.0000 C   0  0  0  0  0  0  0  0  0  0  0  0
    8.9252    2.3245    0.0000 C   0  0  0  0  0  0  0  0  0  0  0  0
    6.6186    0.4168    0.0000 C   0  0  0  0  0  0  0  0  0  0  0  0
    5.9320   -0.0806    0.0000 C   0  0  0  0  0  0  0  0  0  0  0  0
    7.6738   -2.7640    0.0000 C   0  0  0  0  0  0  0  0  0  0  0  0
    8.5052   -2.9036    0.0000 C   0  0  0  0  0  0  0  0  0  0  0  0
   10.0500   -0.4687    0.0000 C   0  0  0  0  0  0  0  0  0  0  0  0
  1  2  1  0  0  0  0
  2  3  1  0  0  0  0
  3  4  4  0  0  0  0
  4  5  4  0  0  0  0
  5  6  1  0  0  0  0
  6  7  1  0  0  0  0
  7  8  1  0  0  0  0
  8  9  1  0  0  0  0
 10  8  1  1  0  0  0
 10 11  1  0  0  0  0
 11 12  1  0  0  0  0
 12 13  4  0  0  0  0
 13 14  4  0  0  0  0
 14 15  4  0  0  0  0
 15 16  1  0  0  0  0
 16 17  1  0  0  0  0
 15 18  4  0  0  0  0
 18 19  1  0  0  0  0
 19 20  1  0  0  0  0
 20 21  4  0  0  0  0
 21 22  4  0  0  0  0
 22 23  4  0  0  0  0
 23 24  1  0  0  0  0
 24 25  1  0  0  0  0
 25 26  1  6  0  0  0
 26 27  1  0  0  0  0
 26 28  1  0  0  0  0
 28 29  1  0  0  0  0
 29 30  1  0  0  0  0
 30 31  4  0  0  0  0
 31 32  4  0  0  0  0
 32 33  1  0  0  0  0
 33 34  1  0  0  0  0
 32 35  4  0  0  0  0
 35 36  1  0  0  0  0
 36 37  1  0  0  0  0
 37 38  4  0  0  0  0
  3 38  4  0  0  0  0
 38 39  1  0  0  0  0
 39 40  1  0  0  0  0
 37 41  4  0  0  0  0
 10 41  1  0  0  0  0
  5 41  4  0  0  0  0
 35 42  4  0  0  0  0
 42 43  4  0  0  0  0
 25 43  1  0  0  0  0
 30 43  4  0  0  0  0
 23 44  4  0  0  0  0
 44 45  4  0  0  0  0
 20 45  4  0  0  0  0
 18 46  4  0  0  0  0
 12 46  4  0  0  0  0
M  END

> <ChembankId>
193

> <SMILES>
COc1cc2CCN(C)[C@H]3Cc4ccc(OC)c(Oc5ccc(C[C@@H]6N(C)CCc7cc(OC)c(Oc(c1OC)c32)cc67)cc5)c4

> <InChI>
1/C38H42N2O6/c1-39-15-13-25-20-32(42-4)34-22-28(25)29(39)17-23-7-10-27(11-8-23)45-33-19-24(9-12-31(33)41-3)18-30-36-26(14-16-40(30)2)21-35(43-5)37(44-6)38(36)46-34/h7-12,19-22,29-30H,13-18H2,1-6H3

$$$$
259
  Marvin  11101114202D          

 27 27  0  0  1  0            999 V2000
   -5.5891   -0.7070    0.0000 C   0  0  0  0  0  0  0  0  0  0  0  0
   -5.0170   -0.1125    0.0000 C   0  0  0  0  0  0  0  0  0  0  0  0
   -4.2162   -0.3107    0.0000 C   0  0  0  0  0  0  0  0  0  0  0  0
   -3.6441    0.2838    0.0000 C   0  0  0  0  0  0  0  0  0  0  0  0
   -2.8433    0.0856    0.0000 C   0  0  0  0  0  0  0  0  0  0  0  0
   -3.0414   -0.7152    0.0000 C   0  0  0  0  0  0  0  0  0  0  0  0
   -2.6451    0.8865    0.0000 C   0  0  0  0  0  0  0  0  0  0  0  0
   -2.0424   -0.1125    0.0000 C   0  0  2  0  0  0  0  0  0  0  0  0
   -1.8136   -0.9052    0.0000 O   0  0  0  0  0  0  0  0  0  0  0  0
   -1.4704    0.4819    0.0000 C   0  0  0  0  0  0  0  0  0  0  0  0
   -0.6696    0.2838    0.0000 C   0  0  0  0  0  0  0  0  0  0  0  0
   -0.0975    0.8783    0.0000 C   0  0  1  0  0  0  0  0  0  0  0  0
   -0.2422    1.6905    0.0000 C   0  0  2  0  0  0  0  0  0  0  0  0
   -0.9844    2.0508    0.0000 O   0  0  0  0  0  0  0  0  0  0  0  0
    0.4855    2.0791    0.0000 C   0  0  0  0  0  0  0  0  0  0  0  0
    1.0800    1.5070    0.0000 C   0  0  0  0  0  0  0  0  0  0  0  0
    1.8922    1.6517    0.0000 O   0  0  0  0  0  0  0  0  0  0  0  0
    0.7197    0.7649    0.0000 C   0  0  2  0  0  0  0  0  0  0  0  0
    1.1083    0.0372    0.0000 C   0  0  0  0  0  0  0  0  0  0  0  0
    0.6723   -0.6633    0.0000 C   0  0  0  0  0  0  0  0  0  0  0  0
    1.0609   -1.3910    0.0000 C   0  0  0  0  0  0  0  0  0  0  0  0
    1.8855   -1.4183    0.0000 C   0  0  0  0  0  0  0  0  0  0  0  0
    2.2741   -2.1461    0.0000 C   0  0  0  0  0  0  0  0  0  0  0  0
    3.0986   -2.1734    0.0000 C   0  0  0  0  0  0  0  0  0  0  0  0
    3.4873   -2.9011    0.0000 C   0  0  0  0  0  0  0  0  0  0  0  0
    4.3118   -2.9285    0.0000 O   0  0  0  0  0  0  0  0  0  0  0  0
    3.0513   -3.6015    0.0000 O   0  0  0  0  0  0  0  0  0  0  0  0
  1  2  1  0  0  0  0
  2  3  1  0  0  0  0
  3  4  1  0  0  0  0
  4  5  1  0  0  0  0
  5  6  1  0  0  0  0
  5  7  1  0  0  0  0
  5  8  1  0  0  0  0
  8  9  1  1  0  0  0
  8 10  1  0  0  0  0
 10 11  2  0  0  0  0
 12 11  1  1  0  0  0
 12 13  1  0  0  0  0
 13 14  1  6  0  0  0
 13 15  1  0  0  0  0
 15 16  1  0  0  0  0
 16 17  2  0  0  0  0
 16 18  1  0  0  0  0
 12 18  1  0  0  0  0
 18 19  1  6  0  0  0
 19 20  1  0  0  0  0
 20 21  2  0  0  0  0
 21 22  1  0  0  0  0
 22 23  1  0  0  0  0
 23 24  1  0  0  0  0
 24 25  1  0  0  0  0
 25 26  2  0  0  0  0
 25 27  1  0  0  0  0
M  END

> <ChembankId>
259

> <SMILES>
CCCCC(C)(C)[C@H](O)/C=C/[C@H]1[C@H](O)CC(=O)[C@@H]1C/C=C\CCCC(=O)O

> <InChI>
1/C22H36O5/c1-4-5-14-22(2,3)20(25)13-12-17-16(18(23)15-19(17)24)10-8-6-7-9-11-21(26)27/h6,8,12-13,16-17,19-20,24-25H,4-5,7,9-11,14-15H2,1-3H3,(H,26,27)

$$$$
607
  Marvin  11101114202D          

 27 29  0  0  0  0            999 V2000
    1.4289    2.4750    0.0000 Br  0  0  0  0  0  0  0  0  0  0  0  0
    2.1434    2.0625    0.0000 C   0  0  0  0  0  0  0  0  0  0  0  0
    2.8579    2.4750    0.0000 C   0  0  0  0  0  0  0  0  0  0  0  0
    3.5724    2.0625    0.0000 C   0  0  0  0  0  0  0  0  0  0  0  0
    3.5724    1.2375    0.0000 C   0  0  0  0  0  0  0  0  0  0  0  0
    4.2868    0.8250    0.0000 C   0  0  0  0  0  0  0  0  0  0  0  0
    4.2868    0.0000    0.0000 C   0  0  0  0  0  0  0  0  0  0  0  0
    5.0013   -0.4125    0.0000 C   0  0  0  0  0  0  0  0  0  0  0  0
    5.7158    0.0000    0.0000 N   0  0  0  0  0  0  0  0  0  0  0  0
    6.4302   -0.4125    0.0000 C   0  0  0  0  0  0  0  0  0  0  0  0
    7.1447    0.0000    0.0000 C   0  0  0  0  0  0  0  0  0  0  0  0
    7.8592   -0.4125    0.0000 N   0  0  0  0  0  0  0  0  0  0  0  0
    8.5737    0.0000    0.0000 S   0  0  0  0  0  0  0  0  0  0  0  0
    8.9862   -0.7145    0.0000 O   0  0  0  0  0  0  0  0  0  0  0  0
    8.1612    0.7145    0.0000 O   0  0  0  0  0  0  0  0  0  0  0  0
    9.2881    0.4125    0.0000 C   0  0  0  0  0  0  0  0  0  0  0  0
    9.2881    1.2375    0.0000 C   0  0  0  0  0  0  0  0  0  0  0  0
   10.0026    1.6500    0.0000 C   0  0  0  0  0  0  0  0  0  0  0  0
   10.7171    1.2375    0.0000 C   0  0  0  0  0  0  0  0  0  0  0  0
   10.7171    0.4125    0.0000 C   0  0  0  0  0  0  0  0  0  0  0  0
   11.4315    0.0000    0.0000 C   0  0  0  0  0  0  0  0  0  0  0  0
   11.4315   -0.8250    0.0000 N   0  0  0  0  0  0  0  0  0  0  0  0
   10.7171   -1.2375    0.0000 C   0  0  0  0  0  0  0  0  0  0  0  0
   10.0026   -0.8250    0.0000 C   0  0  0  0  0  0  0  0  0  0  0  0
   10.0026    0.0000    0.0000 C   0  0  0  0  0  0  0  0  0  0  0  0
    2.8579    0.8250    0.0000 C   0  0  0  0  0  0  0  0  0  0  0  0
    2.1434    1.2375    0.0000 C   0  0  0  0  0  0  0  0  0  0  0  0
  1  2  1  0  0  0  0
  2  3  4  0  0  0  0
  3  4  4  0  0  0  0
  4  5  4  0  0  0  0
  5  6  1  0  0  0  0
  6  7  2  0  0  0  0
  7  8  1  0  0  0  0
  8  9  1  0  0  0  0
  9 10  1  0  0  0  0
 10 11  1  0  0  0  0
 11 12  1  0  0  0  0
 12 13  1  0  0  0  0
 13 14  2  0  0  0  0
 13 15  2  0  0  0  0
 13 16  1  0  0  0  0
 16 17  4  0  0  0  0
 17 18  4  0  0  0  0
 18 19  4  0  0  0  0
 19 20  4  0  0  0  0
 20 21  4  0  0  0  0
 21 22  4  0  0  0  0
 22 23  4  0  0  0  0
 23 24  4  0  0  0  0
 24 25  4  0  0  0  0
 16 25  4  0  0  0  0
 20 25  4  0  0  0  0
  5 26  4  0  0  0  0
 26 27  4  0  0  0  0
  2 27  4  0  0  0  0
M  END

> <ChembankId>
607

> <SMILES>
Brc1ccc(/C=C/CNCCNS(=O)(=O)c2cccc3cnccc23)cc1

> <InChI>
1/C20H20BrN3O2S/c21-18-8-6-16(7-9-18)3-2-11-22-13-14-24-27(25,26)20-5-1-4-17-15-23-12-10-19(17)20/h1-10,12,15,22,24H,11,13-14H2

$$$$
2430
  Marvin  11101114202D          

 78 78  0  0  0  0            999 V2000
    4.9705    6.3434    0.0000 C   0  0  0  0  0  0  0  0  0  0  0  0
    5.7942    6.2981    0.0000 C   0  0  0  0  0  0  0  0  0  0  0  0
    6.2453    6.9889    0.0000 C   0  0  0  0  0  0  0  0  0  0  0  0
    6.1669    5.5621    0.0000 C   0  0  0  0  0  0  0  0  0  0  0  0
    6.9906    5.5168    0.0000 N   0  0  0  0  0  0  0  0  0  0  0  0
    7.3633    4.7808    0.0000 C   0  0  0  0  0  0  0  0  0  0  0  0
    8.1870    4.7355    0.0000 O   0  0  0  0  0  0  0  0  0  0  0  0
    6.9122    4.0900    0.0000 C   0  0  0  0  0  0  0  0  0  0  0  0
    6.0884    4.1353    0.0000 C   0  0  0  0  0  0  0  0  0  0  0  0
    7.2848    3.3540    0.0000 O   0  0  0  0  0  0  0  0  0  0  0  0
    6.8337    2.6632    0.0000 C   0  0  0  0  0  0  0  0  0  0  0  0
    6.0100    2.7085    0.0000 O   0  0  0  0  0  0  0  0  0  0  0  0
    7.2064    1.9272    0.0000 C   0  0  0  0  0  0  0  0  0  0  0  0
    6.7553    1.2364    0.0000 N   0  0  0  0  0  0  0  0  0  0  0  0
    7.1279    0.5004    0.0000 C   0  0  0  0  0  0  0  0  0  0  0  0
    7.9517    0.4551    0.0000 O   0  0  0  0  0  0  0  0  0  0  0  0
    6.6768   -0.1903    0.0000 C   0  0  0  0  0  0  0  0  0  0  0  0
    7.0495   -0.9264    0.0000 O   0  0  0  0  0  0  0  0  0  0  0  0
    6.5984   -1.6171    0.0000 C   0  0  0  0  0  0  0  0  0  0  0  0
    5.7746   -1.5718    0.0000 O   0  0  0  0  0  0  0  0  0  0  0  0
    6.9710   -2.3532    0.0000 C   0  0  0  0  0  0  0  0  0  0  0  0
    6.5199   -3.0439    0.0000 N   0  0  0  0  0  0  0  0  0  0  0  0
    6.8926   -3.7800    0.0000 C   0  0  0  0  0  0  0  0  0  0  0  0
    7.7163   -3.8253    0.0000 O   0  0  0  0  0  0  0  0  0  0  0  0
    6.4415   -4.4707    0.0000 C   0  0  0  0  0  0  0  0  0  0  0  0
    5.6177   -4.4254    0.0000 C   0  0  0  0  0  0  0  0  0  0  0  0
    6.8141   -5.2067    0.0000 O   0  0  0  0  0  0  0  0  0  0  0  0
    6.3630   -5.8975    0.0000 C   0  0  0  0  0  0  0  0  0  0  0  0
    6.7357   -6.6335    0.0000 O   0  0  0  0  0  0  0  0  0  0  0  0
    5.5392   -5.8522    0.0000 C   0  0  0  0  0  0  0  0  0  0  0  0
    5.1666   -5.1162    0.0000 N   0  0  0  0  0  0  0  0  0  0  0  0
    4.3428   -5.0709    0.0000 C   0  0  0  0  0  0  0  0  0  0  0  0
    3.8917   -5.7616    0.0000 O   0  0  0  0  0  0  0  0  0  0  0  0
    3.9702   -4.3348    0.0000 C   0  0  0  0  0  0  0  0  0  0  0  0
    4.4213   -3.6441    0.0000 O   0  0  0  0  0  0  0  0  0  0  0  0
    4.0486   -2.9080    0.0000 C   0  0  0  0  0  0  0  0  0  0  0  0
    3.2249   -2.8627    0.0000 O   0  0  0  0  0  0  0  0  0  0  0  0
    4.4997   -2.2173    0.0000 C   0  0  0  0  0  0  0  0  0  0  0  0
    4.1271   -1.4812    0.0000 N   0  0  0  0  0  0  0  0  0  0  0  0
    4.5782   -0.7905    0.0000 C   0  0  0  0  0  0  0  0  0  0  0  0
    5.4020   -0.8358    0.0000 O   0  0  0  0  0  0  0  0  0  0  0  0
    4.2055   -0.0545    0.0000 C   0  0  0  0  0  0  0  0  0  0  0  0
    3.3818   -0.0092    0.0000 C   0  0  0  0  0  0  0  0  0  0  0  0
    4.6567    0.6363    0.0000 O   0  0  0  0  0  0  0  0  0  0  0  0
    4.2840    1.3723    0.0000 C   0  0  0  0  0  0  0  0  0  0  0  0
    3.4602    1.4176    0.0000 O   0  0  0  0  0  0  0  0  0  0  0  0
    4.7351    2.0631    0.0000 C   0  0  0  0  0  0  0  0  0  0  0  0
    4.3625    2.7991    0.0000 N   0  0  0  0  0  0  0  0  0  0  0  0
    4.8136    3.4899    0.0000 C   0  0  0  0  0  0  0  0  0  0  0  0
    5.6373    3.4446    0.0000 O   0  0  0  0  0  0  0  0  0  0  0  0
    4.4409    4.2259    0.0000 C   0  0  0  0  0  0  0  0  0  0  0  0
    4.8920    4.9166    0.0000 O   0  0  0  0  0  0  0  0  0  0  0  0
    5.7158    4.8714    0.0000 C   0  0  0  0  0  0  0  0  0  0  0  0
    5.5846    4.0568    0.0000 O   0  0  0  0  0  0  0  0  0  0  0  0
    3.6172    4.2712    0.0000 C   0  0  0  0  0  0  0  0  0  0  0  0
    3.2445    5.0072    0.0000 C   0  0  0  0  0  0  0  0  0  0  0  0
    3.1660    3.5804    0.0000 C   0  0  0  0  0  0  0  0  0  0  0  0
    3.9114    2.1084    0.0000 C   0  0  0  0  0  0  0  0  0  0  0  0
    3.5387    2.8444    0.0000 C   0  0  0  0  0  0  0  0  0  0  0  0
    3.1404    1.8147    0.0000 C   0  0  0  0  0  0  0  0  0  0  0  0
    3.6760   -2.1720    0.0000 C   0  0  0  0  0  0  0  0  0  0  0  0
    3.3033   -1.4360    0.0000 C   0  0  0  0  0  0  0  0  0  0  0  0
    2.9050   -2.4657    0.0000 C   0  0  0  0  0  0  0  0  0  0  0  0
    3.1464   -4.2895    0.0000 C   0  0  0  0  0  0  0  0  0  0  0  0
    2.7738   -3.5535    0.0000 C   0  0  0  0  0  0  0  0  0  0  0  0
    2.6953   -4.9803    0.0000 C   0  0  0  0  0  0  0  0  0  0  0  0
    5.0881   -6.5429    0.0000 C   0  0  0  0  0  0  0  0  0  0  0  0
    5.4608   -7.2790    0.0000 C   0  0  0  0  0  0  0  0  0  0  0  0
    4.2644   -6.4976    0.0000 C   0  0  0  0  0  0  0  0  0  0  0  0
    7.7948   -2.3985    0.0000 C   0  0  0  0  0  0  0  0  0  0  0  0
    8.1674   -3.1345    0.0000 C   0  0  0  0  0  0  0  0  0  0  0  0
    8.2459   -1.7077    0.0000 C   0  0  0  0  0  0  0  0  0  0  0  0
    7.5006   -0.2356    0.0000 C   0  0  0  0  0  0  0  0  0  0  0  0
    7.8732   -0.9717    0.0000 C   0  0  0  0  0  0  0  0  0  0  0  0
    8.2715    0.0580    0.0000 C   0  0  0  0  0  0  0  0  0  0  0  0
    8.0301    1.8819    0.0000 C   0  0  0  0  0  0  0  0  0  0  0  0
    8.4028    1.1459    0.0000 C   0  0  0  0  0  0  0  0  0  0  0  0
    8.4812    2.5726    0.0000 C   0  0  0  0  0  0  0  0  0  0  0  0
  1  2  1  0  0  0  0
  2  3  1  0  0  0  0
  2  4  1  0  0  0  0
  4  5  1  0  0  0  0
  5  6  1  0  0  0  0
  6  7  2  0  0  0  0
  6  8  1  0  0  0  0
  8  9  1  0  0  0  0
  8 10  1  0  0  0  0
 10 11  1  0  0  0  0
 11 12  2  0  0  0  0
 11 13  1  0  0  0  0
 13 14  1  0  0  0  0
 14 15  1  0  0  0  0
 15 16  2  0  0  0  0
 15 17  1  0  0  0  0
 17 18  1  0  0  0  0
 18 19  1  0  0  0  0
 19 20  2  0  0  0  0
 19 21  1  0  0  0  0
 21 22  1  0  0  0  0
 22 23  1  0  0  0  0
 23 24  2  0  0  0  0
 23 25  1  0  0  0  0
 25 26  1  0  0  0  0
 25 27  1  0  0  0  0
 27 28  1  0  0  0  0
 28 29  2  0  0  0  0
 28 30  1  0  0  0  0
 30 31  1  0  0  0  0
 31 32  1  0  0  0  0
 32 33  2  0  0  0  0
 32 34  1  0  0  0  0
 34 35  1  0  0  0  0
 35 36  1  0  0  0  0
 36 37  2  0  0  0  0
 36 38  1  0  0  0  0
 38 39  1  0  0  0  0
 39 40  1  0  0  0  0
 40 41  2  0  0  0  0
 40 42  1  0  0  0  0
 42 43  1  0  0  0  0
 42 44  1  0  0  0  0
 44 45  1  0  0  0  0
 45 46  2  0  0  0  0
 45 47  1  0  0  0  0
 47 48  1  0  0  0  0
 48 49  1  0  0  0  0
 49 50  2  0  0  0  0
 49 51  1  0  0  0  0
 51 52  1  0  0  0  0
 52 53  1  0  0  0  0
  4 53  1  0  0  0  0
 53 54  2  0  0  0  0
 51 55  1  0  0  0  0
 55 56  1  0  0  0  0
 55 57  1  0  0  0  0
 47 58  1  0  0  0  0
 58 59  1  0  0  0  0
 58 60  1  0  0  0  0
 38 61  1  0  0  0  0
 61 62  1  0  0  0  0
 61 63  1  0  0  0  0
 34 64  1  0  0  0  0
 64 65  1  0  0  0  0
 64 66  1  0  0  0  0
 30 67  1  0  0  0  0
 67 68  1  0  0  0  0
 67 69  1  0  0  0  0
 21 70  1  0  0  0  0
 70 71  1  0  0  0  0
 70 72  1  0  0  0  0
 17 73  1  0  0  0  0
 73 74  1  0  0  0  0
 73 75  1  0  0  0  0
 13 76  1  0  0  0  0
 76 77  1  0  0  0  0
 76 78  1  0  0  0  0
M  END

> <ChembankId>
2430

> <SMILES>
CC(C)C1NC(=O)C(C)OC(=O)C(NC(=O)C(OC(=O)C(NC(=O)C(C)OC(=O)C(NC(=O)C(OC(=O)C(NC(=O)C(C)OC(=O)C(NC(=O)C(OC1=O)C(C)C)C(C)C)C(C)C)C(C)C)C(C)C)C(C)C)C(C)C)C(C)C

> <InChI>
1/C54H90N6O18/c1-22(2)34-49(67)73-31(19)43(61)55-38(26(9)10)53(71)77-41(29(15)16)47(65)59-36(24(5)6)51(69)75-33(21)45(63)57-39(27(11)12)54(72)78-42(30(17)18)48(66)60-35(23(3)4)50(68)74-32(20)44(62)56-37(25(7)8)52(70)76-40(28(13)14)46(64)58-34/h22-42H,1-21H3,(H,55,61)(H,56,62)(H,57,63)(H,58,64)(H,59,65)(H,60,66)

$$$$
450
  Marvin  11101114202D          

 26 30  0  0  1  0            999 V2000
    3.1037   -1.1001    0.0000 C   0  0  0  0  0  0  0  0  0  0  0  0
    2.8316   -1.8790    0.0000 O   0  0  0  0  0  0  0  0  0  0  0  0
    3.3700   -2.5041    0.0000 C   0  0  0  0  0  0  0  0  0  0  0  0
    4.1805   -2.3503    0.0000 O   0  0  0  0  0  0  0  0  0  0  0  0
    3.0978   -3.2829    0.0000 C   0  0  2  0  0  0  0  0  0  0  0  0
    2.2873   -3.4366    0.0000 C   0  0  1  0  0  0  0  0  0  0  0  0
    1.7489   -2.8115    0.0000 O   0  0  0  0  0  0  0  0  0  0  0  0
    2.0151   -4.2154    0.0000 C   0  0  0  0  0  0  0  0  0  0  0  0
    2.5535   -4.8405    0.0000 C   0  0  0  0  0  0  0  0  0  0  0  0
    3.3641   -4.6868    0.0000 C   0  0  1  0  0  0  0  0  0  0  0  0
    3.9025   -5.3119    0.0000 C   0  0  0  0  0  0  0  0  0  0  0  0
    4.7131   -5.1582    0.0000 N   0  0  0  0  0  0  0  0  0  0  0  0
    5.2515   -5.7833    0.0000 C   0  0  0  0  0  0  0  0  0  0  0  0
    6.0620   -5.6295    0.0000 C   0  0  0  0  0  0  0  0  0  0  0  0
    6.3342   -4.8507    0.0000 C   0  0  0  0  0  0  0  0  0  0  0  0
    5.7957   -4.2256    0.0000 C   0  0  0  0  0  0  0  0  0  0  0  0
    6.2239   -3.5204    0.0000 N   0  0  0  0  0  0  0  0  0  0  0  0
    7.0269   -3.7096    0.0000 C   0  0  0  0  0  0  0  0  0  0  0  0
    7.7048   -3.2395    0.0000 C   0  0  0  0  0  0  0  0  0  0  0  0
    8.4509   -3.5916    0.0000 C   0  0  0  0  0  0  0  0  0  0  0  0
    8.5191   -4.4138    0.0000 C   0  0  0  0  0  0  0  0  0  0  0  0
    7.8411   -4.8839    0.0000 C   0  0  0  0  0  0  0  0  0  0  0  0
    7.0950   -4.5318    0.0000 C   0  0  0  0  0  0  0  0  0  0  0  0
    4.9852   -4.3793    0.0000 C   0  0  2  0  0  0  0  0  0  0  0  0
    4.4468   -3.7542    0.0000 C   0  0  0  0  0  0  0  0  0  0  0  0
    3.6362   -3.9080    0.0000 C   0  0  2  0  0  0  0  0  0  0  0  0
  1  2  1  0  0  0  0
  2  3  1  0  0  0  0
  3  4  2  0  0  0  0
  5  3  1  1  0  0  0
  5  6  1  0  0  0  0
  6  7  1  6  0  0  0
  6  8  1  0  0  0  0
  8  9  1  0  0  0  0
  9 10  1  0  0  0  0
 10 11  1  6  0  0  0
 11 12  1  0  0  0  0
 12 13  1  0  0  0  0
 13 14  1  0  0  0  0
 14 15  1  0  0  0  0
 15 16  4  0  0  0  0
 16 17  4  0  0  0  0
 17 18  4  0  0  0  0
 18 19  4  0  0  0  0
 19 20  4  0  0  0  0
 20 21  4  0  0  0  0
 21 22  4  0  0  0  0
 22 23  4  0  0  0  0
 15 23  4  0  0  0  0
 18 23  4  0  0  0  0
 16 24  1  0  0  0  0
 12 24  1  0  0  0  0
 24 25  1  1  0  0  0
 26 25  1  1  0  0  0
  5 26  1  0  0  0  0
 10 26  1  0  0  0  0
M  STY  1   1 DAT
M  SAL   1  1  17
M  SDT   1 MRV_IMPLICIT_H                                        
M  SDD   1     0.0000    0.0000    DR    ALL  0       0  
M  SED   1 IMPL_H1
M  END

> <ChembankId>
450

> <SMILES>
COC(=O)[C@@H]1[C@@H](O)CC[C@H]2CN3CCc4c([nH]c5ccccc45)[C@@H]3C[C@H]12

> <InChI>
1/C21H26N2O3/c1-26-21(25)19-15-10-17-20-14(13-4-2-3-5-16(13)22-20)8-9-23(17)11-12(15)6-7-18(19)24/h2-5,12,15,17-19,22,24H,6-11H2,1H3

$$$$
2372
  Marvin  11101114202D          

 19 20  0  0  0  0            999 V2000
    0.0000    0.0000    0.0000 C   0  0  0  0  0  0  0  0  0  0  0  0
    0.7145   -0.4125    0.0000 O   0  0  0  0  0  0  0  0  0  0  0  0
    0.7145   -1.2375    0.0000 C   0  0  0  0  0  0  0  0  0  0  0  0
    1.4289   -1.6500    0.0000 C   0  0  0  0  0  0  0  0  0  0  0  0
    1.4289   -2.4750    0.0000 C   0  0  0  0  0  0  0  0  0  0  0  0
    0.7145   -2.8875    0.0000 C   0  0  0  0  0  0  0  0  0  0  0  0
    0.0000   -2.4750    0.0000 C   0  0  0  0  0  0  0  0  0  0  0  0
    0.0000   -1.6500    0.0000 C   0  0  0  0  0  0  0  0  0  0  0  0
   -0.7145   -1.2375    0.0000 O   0  0  0  0  0  0  0  0  0  0  0  0
   -1.4289   -1.6500    0.0000 C   0  0  0  0  0  0  0  0  0  0  0  0
   -2.1434   -1.2375    0.0000 F   0  0  0  0  0  0  0  0  0  0  0  0
   -1.4289   -2.4750    0.0000 F   0  0  0  0  0  0  0  0  0  0  0  0
    2.1434   -2.8875    0.0000 C   0  0  0  0  0  0  0  0  0  0  0  0
    2.8579   -2.4750    0.0000 C   0  0  0  0  0  0  0  0  0  0  0  0
    3.5724   -2.8875    0.0000 C   0  0  0  0  0  0  0  0  0  0  0  0
    3.5724   -3.7125    0.0000 C   0  0  0  0  0  0  0  0  0  0  0  0
    4.2868   -4.1250    0.0000 O   0  0  0  0  0  0  0  0  0  0  0  0
    2.8579   -4.1250    0.0000 N   0  0  0  0  0  0  0  0  0  0  0  0
    2.1434   -3.7125    0.0000 N   0  0  0  0  0  0  0  0  0  0  0  0
  1  2  1  0  0  0  0
  2  3  1  0  0  0  0
  3  4  4  0  0  0  0
  4  5  4  0  0  0  0
  5  6  4  0  0  0  0
  6  7  4  0  0  0  0
  7  8  4  0  0  0  0
  3  8  4  0  0  0  0
  8  9  1  0  0  0  0
  9 10  1  0  0  0  0
 10 11  1  0  0  0  0
 10 12  1  0  0  0  0
  5 13  1  0  0  0  0
 13 14  4  0  0  0  0
 14 15  4  0  0  0  0
 15 16  4  0  0  0  0
 16 17  2  0  0  0  0
 16 18  4  0  0  0  0
 18 19  4  0  0  0  0
 13 19  4  0  0  0  0
M  STY  1   1 DAT
M  SAL   1  1  18
M  SDT   1 MRV_IMPLICIT_H                                        
M  SDD   1     0.0000    0.0000    DR    ALL  0       0  
M  SED   1 IMPL_H1
M  END

> <ChembankId>
2372

> <SMILES>
COc1cc(ccc1OC(F)F)c2ccc(=O)[nH]n2

> <InChI>
1/C12H10F2N2O3/c1-18-10-6-7(2-4-9(10)19-12(13)14)8-3-5-11(17)16-15-8/h2-6,12H,1H3,(H,16,17)

$$$$
1040327
  Marvin  11101114202D          

 15 16  0  0  0  0            999 V2000
   -1.4289    0.0000    0.0000 C   0  0  0  0  0  0  0  0  0  0  0  0
   -0.7145   -0.4125    0.0000 C   0  0  0  0  0  0  0  0  0  0  0  0
   -0.7145   -1.2375    0.0000 O   0  0  0  0  0  0  0  0  0  0  0  0
    0.0000    0.0000    0.0000 N   0  0  0  0  0  0  0  0  0  0  0  0
    0.7145   -0.4125    0.0000 C   0  0  0  0  0  0  0  0  0  0  0  0
    1.4289    0.0000    0.0000 C   0  0  0  0  0  0  0  0  0  0  0  0
    2.1434   -0.4125    0.0000 C   0  0  0  0  0  0  0  0  0  0  0  0
    2.8579    0.0000    0.0000 C   0  0  0  0  0  0  0  0  0  0  0  0
    3.5724   -0.4125    0.0000 C   0  0  0  0  0  0  0  0  0  0  0  0
    3.5724   -1.2375    0.0000 C   0  0  0  0  0  0  0  0  0  0  0  0
    2.8579   -1.6500    0.0000 C   0  0  0  0  0  0  0  0  0  0  0  0
    2.1434   -1.2375    0.0000 C   0  0  0  0  0  0  0  0  0  0  0  0
    1.4289   -1.6500    0.0000 O   0  0  0  0  0  0  0  0  0  0  0  0
    0.7145   -1.2375    0.0000 C   0  0  0  0  0  0  0  0  0  0  0  0
    0.0000   -1.6500    0.0000 O   0  0  0  0  0  0  0  0  0  0  0  0
  1  2  1  0  0  0  0
  2  3  2  0  0  0  0
  2  4  1  0  0  0  0
  4  5  1  0  0  0  0
  5  6  4  0  0  0  0
  6  7  4  0  0  0  0
  7  8  4  0  0  0  0
  8  9  4  0  0  0  0
  9 10  4  0  0  0  0
 10 11  4  0  0  0  0
 11 12  4  0  0  0  0
  7 12  4  0  0  0  0
 12 13  4  0  0  0  0
 13 14  4  0  0  0  0
  5 14  4  0  0  0  0
 14 15  2  0  0  0  0
M  END

> <ChembankId>
1040327

> <SMILES>
CC(=O)Nc1cc2ccccc2oc1=O

> <InChI>
1/C11H9NO3/c1-7(13)12-9-6-8-4-2-3-5-10(8)15-11(9)14/h2-6H,1H3,(H,12,13)

$$$$
1000752
  Marvin  11101114202D          

 45 49  0  0  1  0            999 V2000
    0.0754   -1.2960    0.0000 C   0  0  0  0  0  0  0  0  0  0  0  0
   -0.0961   -0.4891    0.0000 C   0  0  1  0  0  0  0  0  0  0  0  0
   -0.8808   -0.2341    0.0000 C   0  0  0  0  0  0  0  0  0  0  0  0
   -1.0523    0.5728    0.0000 C   0  0  0  0  0  0  0  0  0  0  0  0
   -0.4392    1.1249    0.0000 C   0  0  2  0  0  0  0  0  0  0  0  0
    0.3454    0.8699    0.0000 C   0  0  0  0  0  0  0  0  0  0  0  0
    0.5170    0.0630    0.0000 C   0  0  0  0  0  0  0  0  0  0  0  0
   -0.6107    1.9318    0.0000 O   0  0  0  0  0  0  0  0  0  0  0  0
    0.0024    2.4839    0.0000 C   0  0  0  0  0  0  0  0  0  0  0  0
    0.7870    2.2289    0.0000 O   0  0  0  0  0  0  0  0  0  0  0  0
   -0.1691    3.2908    0.0000 C   0  0  0  0  0  0  0  0  0  0  0  0
   -0.9228    3.6264    0.0000 C   0  0  0  0  0  0  0  0  0  0  0  0
   -0.8366    4.4469    0.0000 O   0  0  0  0  0  0  0  0  0  0  0  0
   -0.0296    4.6184    0.0000 C   0  0  0  0  0  0  0  0  0  0  0  0
    0.3829    5.3329    0.0000 C   0  0  0  0  0  0  0  0  0  0  0  0
   -0.0296    6.0474    0.0000 C   0  0  0  0  0  0  0  0  0  0  0  0
   -0.4421    6.7618    0.0000 C   0  0  0  0  0  0  0  0  0  0  0  0
   -0.8546    7.4763    0.0000 C   0  0  0  0  0  0  0  0  0  0  0  0
   -0.1009    7.8119    0.0000 O   0  0  0  0  0  0  0  0  0  0  0  0
   -1.5221    6.9914    0.0000 C   0  0  0  0  0  0  0  0  0  0  0  0
   -2.1895    7.4763    0.0000 C   0  0  0  0  0  0  0  0  0  0  0  0
   -1.9346    8.2609    0.0000 C   0  0  0  0  0  0  0  0  0  0  0  0
   -1.1096    8.2609    0.0000 C   0  0  0  0  0  0  0  0  0  0  0  0
    1.2079    5.3329    0.0000 C   0  0  0  0  0  0  0  0  0  0  0  0
    1.6204    4.6184    0.0000 C   0  0  0  0  0  0  0  0  0  0  0  0
    2.4454    4.6184    0.0000 C   0  0  0  0  0  0  0  0  0  0  0  0
    2.8579    3.9039    0.0000 C   0  0  2  0  0  0  0  0  0  0  0  0
    2.4454    3.1895    0.0000 N   0  0  0  0  0  0  0  0  0  0  0  0
    2.8579    2.4750    0.0000 C   0  0  0  0  0  0  0  0  0  0  0  0
    3.6829    2.4750    0.0000 O   0  0  0  0  0  0  0  0  0  0  0  0
    2.4454    1.7605    0.0000 C   0  0  0  0  0  0  0  0  0  0  0  0
    3.6829    3.9039    0.0000 C   0  0  0  0  0  0  0  0  0  0  0  0
    4.0954    4.6184    0.0000 O   0  0  0  0  0  0  0  0  0  0  0  0
    4.0954    3.1895    0.0000 N   0  0  0  0  0  0  0  0  0  0  0  0
    4.9204    3.1895    0.0000 C   0  0  0  0  0  0  0  0  0  0  0  0
    5.3329    2.4750    0.0000 C   0  0  0  0  0  0  0  0  0  0  0  0
    6.1579    2.4750    0.0000 O   0  0  0  0  0  0  0  0  0  0  0  0
    1.2079    3.9039    0.0000 C   0  0  0  0  0  0  0  0  0  0  0  0
    0.3829    3.9039    0.0000 C   0  0  0  0  0  0  0  0  0  0  0  0
   -1.6373    3.2139    0.0000 C   0  0  0  0  0  0  0  0  0  0  0  0
   -1.9729    3.9676    0.0000 O   0  0  0  0  0  0  0  0  0  0  0  0
   -1.1524    2.5465    0.0000 C   0  0  0  0  0  0  0  0  0  0  0  0
   -1.6373    1.8790    0.0000 C   0  0  0  0  0  0  0  0  0  0  0  0
   -2.4219    2.1340    0.0000 C   0  0  0  0  0  0  0  0  0  0  0  0
   -2.4219    2.9590    0.0000 C   0  0  0  0  0  0  0  0  0  0  0  0
  2  1  1  1  0  0  0
  2  3  1  0  0  0  0
  3  4  1  0  0  0  0
  4  5  1  0  0  0  0
  5  6  1  0  0  0  0
  6  7  1  0  0  0  0
  2  7  1  0  0  0  0
  5  8  1  1  0  0  0
  8  9  1  0  0  0  0
  9 10  2  0  0  0  0
  9 11  1  0  0  0  0
 11 12  4  0  0  0  0
 12 13  4  0  0  0  0
 13 14  4  0  0  0  0
 14 15  4  0  0  0  0
 15 16  1  0  0  0  0
 16 17  3  0  0  0  0
 17 18  1  0  0  0  0
 18 19  1  0  0  0  0
 18 20  1  0  0  0  0
 20 21  1  0  0  0  0
 21 22  1  0  0  0  0
 22 23  1  0  0  0  0
 18 23  1  0  0  0  0
 15 24  4  0  0  0  0
 24 25  4  0  0  0  0
 25 26  1  0  0  0  0
 26 27  1  0  0  0  0
 27 28  1  1  0  0  0
 28 29  1  0  0  0  0
 29 30  2  0  0  0  0
 29 31  1  0  0  0  0
 27 32  1  0  0  0  0
 32 33  2  0  0  0  0
 32 34  1  0  0  0  0
 34 35  1  0  0  0  0
 35 36  1  0  0  0  0
 36 37  1  0  0  0  0
 25 38  4  0  0  0  0
 38 39  4  0  0  0  0
 11 39  4  0  0  0  0
 14 39  4  0  0  0  0
 12 40  1  0  0  0  0
 40 41  1  0  0  0  0
 40 42  1  0  0  0  0
 42 43  1  0  0  0  0
 43 44  1  0  0  0  0
 44 45  1  0  0  0  0
 40 45  1  0  0  0  0
M  END

> <ChembankId>
1000752

> <SMILES>
C[C@H]1CC[C@H](CC1)OC(=O)c2c(oc3c(C#CC4(O)CCCC4)cc(C[C@H](NC(=O)C)C(=O)NCCO)cc23)C5(O)CCCC5

> <InChI>
1/C35H46N2O8/c1-22-7-9-26(10-8-22)44-33(41)29-27-20-24(21-28(37-23(2)39)32(40)36-17-18-38)19-25(11-16-34(42)12-3-4-13-34)30(27)45-31(29)35(43)14-5-6-15-35/h19-20,22,26,28,38,42-43H,3-10,12-15,17-18,21H2,1-2H3,(H,36,40)(H,37,39)/t22-,26+,28-/m0/s1

$$$$
536
  Marvin  11101114202D          

 24 26  0  0  0  0            999 V2000
    5.0013    4.5375    0.0000 O   0  0  0  0  0  0  0  0  0  0  0  0
    5.7158    4.9500    0.0000 N   0  0  0  0  0  0  0  0  0  0  0  0
    6.4302    4.5375    0.0000 C   0  0  0  0  0  0  0  0  0  0  0  0
    6.4302    3.7125    0.0000 O   0  0  0  0  0  0  0  0  0  0  0  0
    7.1447    4.9500    0.0000 C   0  0  0  0  0  0  0  0  0  0  0  0
    7.8592    4.5375    0.0000 C   0  0  0  0  0  0  0  0  0  0  0  0
    8.5737    4.9500    0.0000 C   0  0  0  0  0  0  0  0  0  0  0  0
    9.2881    4.5375    0.0000 C   0  0  0  0  0  0  0  0  0  0  0  0
   10.0026    4.9500    0.0000 C   0  0  0  0  0  0  0  0  0  0  0  0
   10.7171    4.5375    0.0000 N   0  0  0  0  0  0  0  0  0  0  0  0
   11.4315    4.9500    0.0000 C   0  0  0  0  0  0  0  0  0  0  0  0
   11.4315    5.7750    0.0000 O   0  0  0  0  0  0  0  0  0  0  0  0
   12.1460    4.5375    0.0000 C   0  0  0  0  0  0  0  0  0  0  0  0
   12.8605    4.9500    0.0000 C   0  0  0  0  0  0  0  0  0  0  0  0
   13.5749    4.5375    0.0000 C   0  0  0  0  0  0  0  0  0  0  0  0
   13.5749    3.7125    0.0000 C   0  0  0  0  0  0  0  0  0  0  0  0
   12.8605    3.3000    0.0000 C   0  0  0  0  0  0  0  0  0  0  0  0
   12.8605    2.4750    0.0000 C   0  0  0  0  0  0  0  0  0  0  0  0
   12.1460    2.0625    0.0000 C   0  0  0  0  0  0  0  0  0  0  0  0
   11.4315    2.4750    0.0000 C   0  0  0  0  0  0  0  0  0  0  0  0
   11.4315    3.3000    0.0000 C   0  0  0  0  0  0  0  0  0  0  0  0
   10.7171    3.7125    0.0000 C   0  0  0  0  0  0  0  0  0  0  0  0
   10.0026    3.3000    0.0000 O   0  0  0  0  0  0  0  0  0  0  0  0
   12.1460    3.7125    0.0000 C   0  0  0  0  0  0  0  0  0  0  0  0
  1  2  1  0  0  0  0
  2  3  1  0  0  0  0
  3  4  2  0  0  0  0
  3  5  1  0  0  0  0
  5  6  1  0  0  0  0
  6  7  1  0  0  0  0
  7  8  1  0  0  0  0
  8  9  1  0  0  0  0
  9 10  1  0  0  0  0
 10 11  1  0  0  0  0
 11 12  2  0  0  0  0
 11 13  1  0  0  0  0
 13 14  4  0  0  0  0
 14 15  4  0  0  0  0
 15 16  4  0  0  0  0
 16 17  4  0  0  0  0
 17 18  4  0  0  0  0
 18 19  4  0  0  0  0
 19 20  4  0  0  0  0
 20 21  4  0  0  0  0
 21 22  1  0  0  0  0
 10 22  1  0  0  0  0
 22 23  2  0  0  0  0
 21 24  4  0  0  0  0
 13 24  4  0  0  0  0
 17 24  4  0  0  0  0
M  END

> <ChembankId>
536

> <SMILES>
ONC(=O)CCCCCN1C(=O)c2cccc3cccc(C1=O)c23

> <InChI>
1/C18H18N2O4/c21-15(19-24)10-2-1-3-11-20-17(22)13-8-4-6-12-7-5-9-14(16(12)13)18(20)23/h4-9,24H,1-3,10-11H2,(H,19,21)

$$$$
1134931
  Marvin  11101114202D          

 17 20  0  0  0  0            999 V2000
    1.4089    3.2577    0.0000 C   0  0  0  0  0  0  0  0  0  0  0  0
    0.9964    2.5432    0.0000 C   0  0  0  0  0  0  0  0  0  0  0  0
    0.1714    2.5432    0.0000 C   0  0  0  0  0  0  0  0  0  0  0  0
   -0.2411    1.8288    0.0000 C   0  0  0  0  0  0  0  0  0  0  0  0
    0.1714    1.1143    0.0000 C   0  0  0  0  0  0  0  0  0  0  0  0
   -0.1286    0.2571    0.0000 N   0  0  0  0  0  0  0  0  0  0  0  0
   -0.8411   -0.1554    0.0000 C   0  0  0  0  0  0  0  0  0  0  0  0
   -0.8411   -0.9804    0.0000 C   0  0  0  0  0  0  0  0  0  0  0  0
   -0.1286   -1.3929    0.0000 N   0  0  0  0  0  0  0  0  0  0  0  0
    0.5839   -0.9804    0.0000 C   0  0  0  0  0  0  0  0  0  0  0  0
    1.3018   -1.3929    0.0000 C   0  0  0  0  0  0  0  0  0  0  0  0
    2.0143   -0.9804    0.0000 C   0  0  0  0  0  0  0  0  0  0  0  0
    2.0143   -0.1554    0.0000 C   0  0  0  0  0  0  0  0  0  0  0  0
    1.3018    0.2571    0.0000 C   0  0  0  0  0  0  0  0  0  0  0  0
    0.5839   -0.1554    0.0000 C   0  0  0  0  0  0  0  0  0  0  0  0
    0.9964    1.1143    0.0000 C   0  0  0  0  0  0  0  0  0  0  0  0
    1.4089    1.8288    0.0000 C   0  0  0  0  0  0  0  0  0  0  0  0
  1  2  1  0  0  0  0
  2  3  4  0  0  0  0
  3  4  4  0  0  0  0
  4  5  4  0  0  0  0
  5  6  4  0  0  0  0
  6  7  1  0  0  0  0
  7  8  1  0  0  0  0
  8  9  1  0  0  0  0
  9 10  1  0  0  0  0
 10 11  1  0  0  0  0
 11 12  1  0  0  0  0
 12 13  1  0  0  0  0
 13 14  1  0  0  0  0
 14 15  4  0  0  0  0
 10 15  1  0  0  0  0
  6 15  4  0  0  0  0
 14 16  4  0  0  0  0
  5 16  4  0  0  0  0
 16 17  4  0  0  0  0
  2 17  4  0  0  0  0
M  END

> <ChembankId>
1134931

> <SMILES>
Cc1ccc2n3CCNC4CCCc(c43)c2c1

> <InChI>
1/C15H18N2/c1-10-5-6-14-12(9-10)11-3-2-4-13-15(11)17(14)8-7-16-13/h5-6,9,13,16H,2-4,7-8H2,1H3

$$$$
1540789
  Marvin  11101114202D          

 22 23  0  0  0  0            999 V2000
   -3.5724    2.0625    0.0000 C   0  0  0  0  0  0  0  0  0  0  0  0
   -3.5724    1.2375    0.0000 O   0  0  0  0  0  0  0  0  0  0  0  0
   -2.8579    0.8250    0.0000 C   0  0  0  0  0  0  0  0  0  0  0  0
   -2.1434    1.2375    0.0000 C   0  0  0  0  0  0  0  0  0  0  0  0
   -1.4289    0.8250    0.0000 C   0  0  0  0  0  0  0  0  0  0  0  0
   -0.7145    1.2375    0.0000 O   0  0  0  0  0  0  0  0  0  0  0  0
   -1.4289    0.0000    0.0000 N   0  0  0  0  0  0  0  0  0  0  0  0
   -0.7145   -0.4125    0.0000 C   0  0  0  0  0  0  0  0  0  0  0  0
   -2.1434   -0.4125    0.0000 C   0  0  0  0  0  0  0  0  0  0  0  0
   -2.1434   -1.2375    0.0000 C   0  0  0  0  0  0  0  0  0  0  0  0
   -1.4289   -1.6500    0.0000 O   0  0  0  0  0  0  0  0  0  0  0  0
   -0.7145   -1.2375    0.0000 C   0  0  0  0  0  0  0  0  0  0  0  0
    0.0000   -1.6500    0.0000 C   0  0  0  0  0  0  0  0  0  0  0  0
    0.0000   -2.4750    0.0000 O   0  0  0  0  0  0  0  0  0  0  0  0
    0.7145   -1.2375    0.0000 C   0  0  0  0  0  0  0  0  0  0  0  0
    1.4289   -0.8250    0.0000 C   0  0  0  0  0  0  0  0  0  0  0  0
    1.1270   -1.9520    0.0000 C   0  0  0  0  0  0  0  0  0  0  0  0
    0.3020   -0.5230    0.0000 O   0  0  0  0  0  0  0  0  0  0  0  0
   -2.8579   -1.6500    0.0000 C   0  0  0  0  0  0  0  0  0  0  0  0
   -3.5724   -1.2375    0.0000 C   0  0  0  0  0  0  0  0  0  0  0  0
   -3.5724   -0.4125    0.0000 C   0  0  0  0  0  0  0  0  0  0  0  0
   -2.8579    0.0000    0.0000 C   0  0  0  0  0  0  0  0  0  0  0  0
  1  2  1  0  0  0  0
  2  3  1  0  0  0  0
  3  4  4  0  0  0  0
  4  5  4  0  0  0  0
  5  6  2  0  0  0  0
  5  7  4  0  0  0  0
  7  8  1  0  0  0  0
  7  9  4  0  0  0  0
  9 10  4  0  0  0  0
 10 11  1  0  0  0  0
 11 12  1  0  0  0  0
 12 13  1  0  0  0  0
 13 14  1  0  0  0  0
 13 15  1  0  0  0  0
 15 16  1  0  0  0  0
 15 17  1  0  0  0  0
 15 18  1  0  0  0  0
 10 19  4  0  0  0  0
 19 20  4  0  0  0  0
 20 21  4  0  0  0  0
 21 22  4  0  0  0  0
  3 22  4  0  0  0  0
  9 22  4  0  0  0  0
M  END

> <ChembankId>
1540789

> <SMILES>
COc1cc(=O)n(C)c2c(OCC(O)C(C)(C)O)cccc12

> <InChI>
1/C16H21NO5/c1-16(2,20)13(18)9-22-11-7-5-6-10-12(21-4)8-14(19)17(3)15(10)11/h5-8,13,18,20H,9H2,1-4H3

$$$$
1054505
  Marvin  11101114202D          

 19 21  0  0  0  0            999 V2000
    0.0000   -2.4750    0.0000 C   0  0  0  0  0  0  0  0  0  0  0  0
    0.0000   -1.6500    0.0000 O   0  0  0  0  0  0  0  0  0  0  0  0
    0.7145   -1.2375    0.0000 C   0  0  0  0  0  0  0  0  0  0  0  0
    0.7145   -0.4125    0.0000 C   0  0  0  0  0  0  0  0  0  0  0  0
    1.4289    0.0000    0.0000 C   0  0  0  0  0  0  0  0  0  0  0  0
    2.1434   -0.4125    0.0000 C   0  0  0  0  0  0  0  0  0  0  0  0
    2.8579    0.0000    0.0000 C   0  0  0  0  0  0  0  0  0  0  0  0
    2.8579    0.8250    0.0000 O   0  0  0  0  0  0  0  0  0  0  0  0
    2.1434    1.2375    0.0000 C   0  0  0  0  0  0  0  0  0  0  0  0
    3.5724   -0.4125    0.0000 C   0  0  0  0  0  0  0  0  0  0  0  0
    4.3570   -0.1576    0.0000 C   0  0  0  0  0  0  0  0  0  0  0  0
    4.8419   -0.8250    0.0000 C   0  0  0  0  0  0  0  0  0  0  0  0
    4.3570   -1.4924    0.0000 O   0  0  0  0  0  0  0  0  0  0  0  0
    3.5724   -1.2375    0.0000 C   0  0  0  0  0  0  0  0  0  0  0  0
    2.8579   -1.6500    0.0000 N   0  0  0  0  0  0  0  0  0  0  0  0
    2.1434   -1.2375    0.0000 C   0  0  0  0  0  0  0  0  0  0  0  0
    1.4289   -1.6500    0.0000 C   0  0  0  0  0  0  0  0  0  0  0  0
    1.4289   -2.4750    0.0000 O   0  0  0  0  0  0  0  0  0  0  0  0
    0.7145   -2.8875    0.0000 C   0  0  0  0  0  0  0  0  0  0  0  0
  1  2  1  0  0  0  0
  2  3  1  0  0  0  0
  3  4  4  0  0  0  0
  4  5  4  0  0  0  0
  5  6  4  0  0  0  0
  6  7  4  0  0  0  0
  7  8  1  0  0  0  0
  8  9  1  0  0  0  0
  7 10  4  0  0  0  0
 10 11  4  0  0  0  0
 11 12  4  0  0  0  0
 12 13  4  0  0  0  0
 13 14  4  0  0  0  0
 10 14  4  0  0  0  0
 14 15  4  0  0  0  0
 15 16  4  0  0  0  0
  6 16  4  0  0  0  0
 16 17  4  0  0  0  0
  3 17  4  0  0  0  0
 17 18  1  0  0  0  0
 18 19  1  0  0  0  0
M  END

> <ChembankId>
1054505

> <SMILES>
COc1ccc2c(OC)c3ccoc3nc2c1OC

> <InChI>
1/C14H13NO4/c1-16-10-5-4-8-11(13(10)18-3)15-14-9(6-7-19-14)12(8)17-2/h4-7H,1-3H3

$$$$
1054504
  Marvin  11101114202D          

 25 27  0  0  0  0            999 V2000
    2.8579    0.8250    0.0000 C   0  0  0  0  0  0  0  0  0  0  0  0
    2.8579    0.0000    0.0000 O   0  0  0  0  0  0  0  0  0  0  0  0
    2.1434   -0.4125    0.0000 C   0  0  0  0  0  0  0  0  0  0  0  0
    2.1434   -1.2375    0.0000 C   0  0  0  0  0  0  0  0  0  0  0  0
    2.8579   -1.6500    0.0000 O   0  0  0  0  0  0  0  0  0  0  0  0
    3.5724   -1.2375    0.0000 C   0  0  0  0  0  0  0  0  0  0  0  0
    4.2868   -1.6500    0.0000 C   0  0  0  0  0  0  0  0  0  0  0  0
    4.2868   -2.4750    0.0000 O   0  0  0  0  0  0  0  0  0  0  0  0
    5.0013   -1.2375    0.0000 C   0  0  0  0  0  0  0  0  0  0  0  0
    5.7158   -0.8250    0.0000 C   0  0  0  0  0  0  0  0  0  0  0  0
    4.5888   -0.5230    0.0000 C   0  0  0  0  0  0  0  0  0  0  0  0
    5.4138   -1.9520    0.0000 O   0  0  0  0  0  0  0  0  0  0  0  0
    1.4289   -1.6500    0.0000 C   0  0  0  0  0  0  0  0  0  0  0  0
    0.7145   -1.2375    0.0000 C   0  0  0  0  0  0  0  0  0  0  0  0
    0.7145   -0.4125    0.0000 C   0  0  0  0  0  0  0  0  0  0  0  0
    0.0000    0.0000    0.0000 C   0  0  0  0  0  0  0  0  0  0  0  0
   -0.7145   -0.4125    0.0000 O   0  0  0  0  0  0  0  0  0  0  0  0
   -0.7145   -1.2375    0.0000 C   0  0  0  0  0  0  0  0  0  0  0  0
    0.0000    0.8250    0.0000 C   0  0  0  0  0  0  0  0  0  0  0  0
   -0.6131    1.3770    0.0000 C   0  0  0  0  0  0  0  0  0  0  0  0
   -0.2775    2.1307    0.0000 C   0  0  0  0  0  0  0  0  0  0  0  0
    0.5429    2.0445    0.0000 O   0  0  0  0  0  0  0  0  0  0  0  0
    0.7145    1.2375    0.0000 C   0  0  0  0  0  0  0  0  0  0  0  0
    1.4289    0.8250    0.0000 N   0  0  0  0  0  0  0  0  0  0  0  0
    1.4289    0.0000    0.0000 C   0  0  0  0  0  0  0  0  0  0  0  0
  1  2  1  0  0  0  0
  2  3  1  0  0  0  0
  3  4  4  0  0  0  0
  4  5  1  0  0  0  0
  5  6  1  0  0  0  0
  6  7  1  0  0  0  0
  7  8  1  0  0  0  0
  7  9  1  0  0  0  0
  9 10  1  0  0  0  0
  9 11  1  0  0  0  0
  9 12  1  0  0  0  0
  4 13  4  0  0  0  0
 13 14  4  0  0  0  0
 14 15  4  0  0  0  0
 15 16  4  0  0  0  0
 16 17  1  0  0  0  0
 17 18  1  0  0  0  0
 16 19  4  0  0  0  0
 19 20  4  0  0  0  0
 20 21  4  0  0  0  0
 21 22  4  0  0  0  0
 22 23  4  0  0  0  0
 19 23  4  0  0  0  0
 23 24  4  0  0  0  0
 24 25  4  0  0  0  0
  3 25  4  0  0  0  0
 15 25  4  0  0  0  0
M  END

> <ChembankId>
1054504

> <SMILES>
COc1c(OCC(O)C(C)(C)O)ccc2c(OC)c3ccoc3nc12

> <InChI>
1/C18H21NO6/c1-18(2,21)13(20)9-25-12-6-5-10-14(16(12)23-4)19-17-11(7-8-24-17)15(10)22-3/h5-8,13,20-21H,9H2,1-4H3

$$$$
1605435
  Marvin  11101114202D          

 16 17  0  0  0  0            999 V2000
    2.1434   -0.4125    0.0000 C   0  0  0  0  0  0  0  0  0  0  0  0
    2.1434   -1.2375    0.0000 C   0  0  0  0  0  0  0  0  0  0  0  0
    2.8579   -1.6500    0.0000 C   0  0  0  0  0  0  0  0  0  0  0  0
    2.8579   -2.4750    0.0000 C   0  0  0  0  0  0  0  0  0  0  0  0
    2.1434   -2.8875    0.0000 C   0  0  0  0  0  0  0  0  0  0  0  0
    1.4289   -2.4750    0.0000 C   0  0  0  0  0  0  0  0  0  0  0  0
    1.4289   -1.6500    0.0000 C   0  0  0  0  0  0  0  0  0  0  0  0
    2.1434   -3.7125    0.0000 C   0  0  0  0  0  0  0  0  0  0  0  0
    2.8579   -4.1250    0.0000 O   0  0  0  0  0  0  0  0  0  0  0  0
    1.4289   -4.1250    0.0000 C   0  0  0  0  0  0  0  0  0  0  0  0
    1.4289   -4.9500    0.0000 C   0  0  0  0  0  0  0  0  0  0  0  0
    0.7145   -5.3625    0.0000 N   0  0  0  0  0  0  0  0  0  0  0  0
   -0.0000   -4.9500    0.0000 C   0  0  0  0  0  0  0  0  0  0  0  0
   -0.0000   -4.1250    0.0000 C   0  0  0  0  0  0  0  0  0  0  0  0
   -0.7145   -3.7125    0.0000 Br  0  0  0  0  0  0  0  0  0  0  0  0
    0.7145   -3.7125    0.0000 C   0  0  0  0  0  0  0  0  0  0  0  0
  1  2  1  0  0  0  0
  2  3  4  0  0  0  0
  3  4  4  0  0  0  0
  4  5  4  0  0  0  0
  5  6  4  0  0  0  0
  6  7  4  0  0  0  0
  2  7  4  0  0  0  0
  5  8  1  0  0  0  0
  8  9  2  0  0  0  0
  8 10  1  0  0  0  0
 10 11  4  0  0  0  0
 11 12  4  0  0  0  0
 12 13  4  0  0  0  0
 13 14  4  0  0  0  0
 14 15  1  0  0  0  0
 14 16  4  0  0  0  0
 10 16  4  0  0  0  0
M  END

> <ChembankId>
1605435

> <SMILES>
Cc1ccc(cc1)C(=O)c2cncc(Br)c2

> <InChI>
1/C13H10BrNO/c1-9-2-4-10(5-3-9)13(16)11-6-12(14)8-15-7-11/h2-8H,1H3

$$$$
3019820
  Marvin  11101114202D          

 22 25  0  0  0  0            999 V2000
   -0.2095    3.5730    0.0000 O   0  0  0  0  0  0  0  0  0  0  0  0
    0.5050    3.9855    0.0000 C   0  0  0  0  0  0  0  0  0  0  0  0
    0.5050    4.8105    0.0000 C   0  0  0  0  0  0  0  0  0  0  0  0
    1.2195    5.2230    0.0000 C   0  0  0  0  0  0  0  0  0  0  0  0
    1.9339    4.8105    0.0000 C   0  0  0  0  0  0  0  0  0  0  0  0
    1.9339    3.9855    0.0000 C   0  0  0  0  0  0  0  0  0  0  0  0
    1.2195    3.5730    0.0000 C   0  0  0  0  0  0  0  0  0  0  0  0
    1.2195    2.7480    0.0000 C   0  0  0  0  0  0  0  0  0  0  0  0
    1.9339    2.3355    0.0000 N   0  0  0  0  0  0  0  0  0  0  0  0
    1.9339    1.5105    0.0000 N   0  0  0  0  0  0  0  0  0  0  0  0
    2.6014    1.0256    0.0000 C   0  0  0  0  0  0  0  0  0  0  0  0
    3.4084    1.1971    0.0000 C   0  0  0  0  0  0  0  0  0  0  0  0
    3.9604    0.5840    0.0000 C   0  0  0  0  0  0  0  0  0  0  0  0
    3.7054   -0.2006    0.0000 C   0  0  0  0  0  0  0  0  0  0  0  0
    2.8985   -0.3721    0.0000 C   0  0  0  0  0  0  0  0  0  0  0  0
    2.3464    0.2410    0.0000 C   0  0  0  0  0  0  0  0  0  0  0  0
    1.5214    0.2410    0.0000 C   0  0  0  0  0  0  0  0  0  0  0  0
    0.9694   -0.3721    0.0000 C   0  0  0  0  0  0  0  0  0  0  0  0
    0.1624   -0.2006    0.0000 C   0  0  0  0  0  0  0  0  0  0  0  0
   -0.0925    0.5840    0.0000 C   0  0  0  0  0  0  0  0  0  0  0  0
    0.4595    1.1971    0.0000 C   0  0  0  0  0  0  0  0  0  0  0  0
    1.2665    1.0256    0.0000 C   0  0  0  0  0  0  0  0  0  0  0  0
  1  2  1  0  0  0  0
  2  3  4  0  0  0  0
  3  4  4  0  0  0  0
  4  5  4  0  0  0  0
  5  6  4  0  0  0  0
  6  7  4  0  0  0  0
  2  7  4  0  0  0  0
  7  8  1  0  0  0  0
  8  9  2  0  0  0  0
  9 10  1  0  0  0  0
 10 11  4  0  0  0  0
 11 12  4  0  0  0  0
 12 13  4  0  0  0  0
 13 14  4  0  0  0  0
 14 15  4  0  0  0  0
 15 16  4  0  0  0  0
 11 16  4  0  0  0  0
 16 17  4  0  0  0  0
 17 18  4  0  0  0  0
 18 19  4  0  0  0  0
 19 20  4  0  0  0  0
 20 21  4  0  0  0  0
 21 22  4  0  0  0  0
 10 22  4  0  0  0  0
 17 22  4  0  0  0  0
M  END

> <ChembankId>
3019820

> <SMILES>
Oc1ccccc1/C=N/n2c3ccccc3c4ccccc24

> <InChI>
1/C19H14N2O/c22-19-12-6-1-7-14(19)13-20-21-17-10-4-2-8-15(17)16-9-3-5-11-18(16)21/h1-13,22H/b20-13+

$$$$
1019709
  Marvin  11101114202D          

 22 24  0  0  0  0            999 V2000
    0.8111    0.6467    0.0000 C   0  0  0  0  0  0  0  0  0  0  0  0
    0.4999   -0.1173    0.0000 N   0  3  0  0  0  0  0  0  0  0  0  0
   -0.3203   -0.0281    0.0000 C   0  0  0  0  0  0  0  0  0  0  0  0
    1.0605   -0.5572    0.0000 C   0  0  0  0  0  0  0  0  0  0  0  0
    0.7400   -1.2658    0.0000 C   0  0  0  0  0  0  0  0  0  0  0  0
    0.1197   -1.6427    0.0000 C   0  0  0  0  0  0  0  0  0  0  0  0
    0.6396   -0.9304    0.0000 C   0  0  0  0  0  0  0  0  0  0  0  0
    1.6113   -0.9304    0.0000 C   0  0  0  0  0  0  0  0  0  0  0  0
    2.1275   -1.3591    0.0000 C   0  0  0  0  0  0  0  0  0  0  0  0
    1.9893   -0.5417    0.0000 C   0  0  0  0  0  0  0  0  0  0  0  0
    2.5393   -2.0740    0.0000 O   0  0  0  0  0  0  0  0  0  0  0  0
    2.1261   -2.7880    0.0000 C   0  0  0  0  0  0  0  0  0  0  0  0
    1.3011   -2.7872    0.0000 O   0  0  0  0  0  0  0  0  0  0  0  0
    2.5379   -3.5029    0.0000 C   0  0  0  0  0  0  0  0  0  0  0  0
    3.3629   -3.5037    0.0000 C   0  0  0  0  0  0  0  0  0  0  0  0
    3.7747   -4.2186    0.0000 O   0  0  0  0  0  0  0  0  0  0  0  0
    2.1247   -4.2170    0.0000 C   0  0  0  0  0  0  0  0  0  0  0  0
    2.5365   -4.9319    0.0000 C   0  0  0  0  0  0  0  0  0  0  0  0
    2.1233   -5.6459    0.0000 C   0  0  0  0  0  0  0  0  0  0  0  0
    1.2983   -5.6451    0.0000 C   0  0  0  0  0  0  0  0  0  0  0  0
    0.8865   -4.9302    0.0000 C   0  0  0  0  0  0  0  0  0  0  0  0
    1.2997   -4.2162    0.0000 C   0  0  0  0  0  0  0  0  0  0  0  0
  1  2  1  0  0  0  0
  2  3  1  0  0  0  0
  2  4  1  0  0  0  0
  4  5  1  0  0  0  0
  5  6  1  0  0  0  0
  6  7  1  0  0  0  0
  2  7  1  0  0  0  0
  7  8  1  0  0  0  0
  8  9  1  0  0  0  0
  9 10  1  0  0  0  0
  4 10  1  0  0  0  0
  9 11  1  0  0  0  0
 11 12  1  0  0  0  0
 12 13  2  0  0  0  0
 12 14  1  0  0  0  0
 14 15  1  0  0  0  0
 15 16  1  0  0  0  0
 14 17  1  0  0  0  0
 17 18  4  0  0  0  0
 18 19  4  0  0  0  0
 19 20  4  0  0  0  0
 20 21  4  0  0  0  0
 21 22  4  0  0  0  0
 17 22  4  0  0  0  0
M  CHG  1   2   1
M  END

> <ChembankId>
1019709

> <SMILES>
C[N+]1(C)C2CCC1CC(C2)OC(=O)C(CO)c3ccccc3

> <InChI>
1/C18H26NO3/c1-19(2)14-8-9-15(19)11-16(10-14)22-18(21)17(12-20)13-6-4-3-5-7-13/h3-7,14-17,20H,8-12H2,1-2H3/q+1/t14-,15+,16-,17-/m0/s1

$$$$
686
  Marvin  11101114202D          

 16 18  0  0  0  0            999 V2000
    2.5645    2.4750    0.0000 C   0  0  0  0  0  0  0  0  0  0  0  0
    3.2789    2.0625    0.0000 N   0  0  0  0  0  0  0  0  0  0  0  0
    3.2789    1.2375    0.0000 C   0  0  0  0  0  0  0  0  0  0  0  0
    3.9934    0.8250    0.0000 N   0  0  0  0  0  0  0  0  0  0  0  0
    3.9934    0.0000    0.0000 C   0  0  0  0  0  0  0  0  0  0  0  0
    3.2789   -0.4125    0.0000 N   0  0  0  0  0  0  0  0  0  0  0  0
    2.5645    0.0000    0.0000 C   0  0  0  0  0  0  0  0  0  0  0  0
    1.7798   -0.2549    0.0000 N   0  0  0  0  0  0  0  0  0  0  0  0
    1.2949    0.4125    0.0000 C   0  0  0  0  0  0  0  0  0  0  0  0
    1.7798    1.0799    0.0000 N   0  0  0  0  0  0  0  0  0  0  0  0
    2.5645    0.8250    0.0000 C   0  0  0  0  0  0  0  0  0  0  0  0
    2.5645    3.3000    0.0000 C   0  0  0  0  0  0  0  0  0  0  0  0
    1.8970    3.7849    0.0000 C   0  0  0  0  0  0  0  0  0  0  0  0
    2.1520    4.5695    0.0000 C   0  0  0  0  0  0  0  0  0  0  0  0
    2.9770    4.5695    0.0000 C   0  0  0  0  0  0  0  0  0  0  0  0
    3.2319    3.7849    0.0000 O   0  0  0  0  0  0  0  0  0  0  0  0
  1  2  1  0  0  0  0
  2  3  1  0  0  0  0
  3  4  4  0  0  0  0
  4  5  4  0  0  0  0
  5  6  4  0  0  0  0
  6  7  4  0  0  0  0
  7  8  4  0  0  0  0
  8  9  4  0  0  0  0
  9 10  4  0  0  0  0
 10 11  4  0  0  0  0
  3 11  4  0  0  0  0
  7 11  4  0  0  0  0
  1 12  1  0  0  0  0
 12 13  4  0  0  0  0
 13 14  4  0  0  0  0
 14 15  4  0  0  0  0
 15 16  4  0  0  0  0
 12 16  4  0  0  0  0
M  STY  1   1 DAT
M  SAL   1  1   8
M  SDT   1 MRV_IMPLICIT_H                                        
M  SDD   1     0.0000    0.0000    DR    ALL  0       0  
M  SED   1 IMPL_H1
M  END

> <ChembankId>
686

> <SMILES>
C(Nc1ncnc2[nH]cnc12)c3ccco3

> <InChI>
1/C10H9N5O/c1-2-7(16-3-1)4-11-9-8-10(13-5-12-8)15-6-14-9/h1-3,5-6H,4H2,(H2,11,12,13,14,15)

$$$$
695
  Marvin  11101114202D          

 16 16  0  0  0  0            999 V2000
   -0.7145    2.8875    0.0000 C   0  0  0  0  0  0  0  0  0  0  0  0
    0.0000    2.4750    0.0000 C   0  0  0  0  0  0  0  0  0  0  0  0
    0.7145    2.8875    0.0000 C   0  0  0  0  0  0  0  0  0  0  0  0
    1.4289    2.4750    0.0000 C   0  0  0  0  0  0  0  0  0  0  0  0
    1.4289    1.6500    0.0000 C   0  0  0  0  0  0  0  0  0  0  0  0
    0.7145    1.2375    0.0000 C   0  0  0  0  0  0  0  0  0  0  0  0
   -0.0000    1.6500    0.0000 C   0  0  0  0  0  0  0  0  0  0  0  0
    2.1434    1.2375    0.0000 N   0  0  0  0  0  0  0  0  0  0  0  0
    2.8579    1.6500    0.0000 C   0  0  0  0  0  0  0  0  0  0  0  0
    2.8579    2.4750    0.0000 O   0  0  0  0  0  0  0  0  0  0  0  0
    3.5724    1.2375    0.0000 N   0  0  0  0  0  0  0  0  0  0  0  0
    4.2868    1.6500    0.0000 C   0  0  0  0  0  0  0  0  0  0  0  0
    5.0013    1.2375    0.0000 C   0  0  0  0  0  0  0  0  0  0  0  0
    5.7158    1.6500    0.0000 Cl  0  0  0  0  0  0  0  0  0  0  0  0
    3.5724    0.4125    0.0000 N   0  0  0  0  0  0  0  0  0  0  0  0
    4.2868    0.0000    0.0000 O   0  0  0  0  0  0  0  0  0  0  0  0
  1  2  1  0  0  0  0
  2  3  1  0  0  0  0
  3  4  1  0  0  0  0
  4  5  1  0  0  0  0
  5  6  1  0  0  0  0
  6  7  1  0  0  0  0
  2  7  1  0  0  0  0
  5  8  1  0  0  0  0
  8  9  1  0  0  0  0
  9 10  2  0  0  0  0
  9 11  1  0  0  0  0
 11 12  1  0  0  0  0
 12 13  1  0  0  0  0
 13 14  1  0  0  0  0
 11 15  1  0  0  0  0
 15 16  2  0  0  0  0
M  END

> <ChembankId>
695

> <SMILES>
CC1CCC(CC1)NC(=O)N(CCCl)N=O

> <InChI>
1/C10H18ClN3O2/c1-8-2-4-9(5-3-8)12-10(15)14(13-16)7-6-11/h8-9H,2-7H2,1H3,(H,12,15)

$$$$
760
  Marvin  11101114202D          

  7  7  0  0  1  0            999 V2000
    2.0198    0.8843    0.0000 N   0  0  0  0  0  0  0  0  0  0  0  0
    1.2352    0.6294    0.0000 C   0  0  2  0  0  0  0  0  0  0  0  0
    0.9803   -0.1553    0.0000 C   0  0  0  0  0  0  0  0  0  0  0  0
    0.1553   -0.1553    0.0000 O   0  0  0  0  0  0  0  0  0  0  0  0
   -0.0997    0.6294    0.0000 N   0  0  0  0  0  0  0  0  0  0  0  0
    0.5678    1.1143    0.0000 C   0  0  0  0  0  0  0  0  0  0  0  0
    0.5678    1.9393    0.0000 O   0  0  0  0  0  0  0  0  0  0  0  0
  2  1  1  6  0  0  0
  2  3  1  0  0  0  0
  3  4  1  0  0  0  0
  4  5  1  0  0  0  0
  5  6  1  0  0  0  0
  2  6  1  0  0  0  0
  6  7  2  0  0  0  0
M  END

> <ChembankId>
760

> <SMILES>
N[C@@H]1CONC1=O

> <InChI>
1/C3H6N2O2/c4-2-1-7-5-3(2)6/h2H,1,4H2,(H,5,6)

$$$$
772
  Marvin  11101114202D          

 24 26  0  0  0  0            999 V2000
   -1.4289   -0.0000    0.0000 C   0  0  0  0  0  0  0  0  0  0  0  0
   -2.1434   -0.4125    0.0000 C   0  0  0  0  0  0  0  0  0  0  0  0
   -2.1434   -1.2375    0.0000 N   0  0  0  0  0  0  0  0  0  0  0  0
   -1.4289   -1.6500    0.0000 C   0  0  0  0  0  0  0  0  0  0  0  0
   -1.4289   -2.4750    0.0000 C   0  0  0  0  0  0  0  0  0  0  0  0
   -2.1434   -2.8875    0.0000 C   0  0  0  0  0  0  0  0  0  0  0  0
   -2.8579   -2.4750    0.0000 C   0  0  0  0  0  0  0  0  0  0  0  0
   -2.8579   -1.6500    0.0000 C   0  0  0  0  0  0  0  0  0  0  0  0
   -3.5724   -2.8875    0.0000 O   0  0  0  0  0  0  0  0  0  0  0  0
   -4.2868   -2.4750    0.0000 C   0  0  0  0  0  0  0  0  0  0  0  0
   -4.2868   -1.6500    0.0000 O   0  0  0  0  0  0  0  0  0  0  0  0
   -5.0013   -2.8875    0.0000 C   0  0  0  0  0  0  0  0  0  0  0  0
   -5.7158   -2.4750    0.0000 C   0  0  0  0  0  0  0  0  0  0  0  0
   -6.4302   -2.8875    0.0000 C   0  0  0  0  0  0  0  0  0  0  0  0
   -7.1447   -2.4750    0.0000 C   0  0  0  0  0  0  0  0  0  0  0  0
   -7.1447   -1.6500    0.0000 C   0  0  0  0  0  0  0  0  0  0  0  0
   -6.4302   -1.2375    0.0000 C   0  0  0  0  0  0  0  0  0  0  0  0
   -5.7158   -1.6500    0.0000 C   0  0  0  0  0  0  0  0  0  0  0  0
   -5.0013   -3.7125    0.0000 C   0  0  0  0  0  0  0  0  0  0  0  0
   -4.2868   -4.1250    0.0000 C   0  0  0  0  0  0  0  0  0  0  0  0
   -4.2868   -4.9500    0.0000 C   0  0  0  0  0  0  0  0  0  0  0  0
   -5.0013   -5.3625    0.0000 C   0  0  0  0  0  0  0  0  0  0  0  0
   -5.7158   -4.9500    0.0000 C   0  0  0  0  0  0  0  0  0  0  0  0
   -5.7158   -4.1250    0.0000 C   0  0  0  0  0  0  0  0  0  0  0  0
  1  2  1  0  0  0  0
  2  3  1  0  0  0  0
  3  4  1  0  0  0  0
  4  5  1  0  0  0  0
  5  6  1  0  0  0  0
  6  7  1  0  0  0  0
  7  8  1  0  0  0  0
  3  8  1  0  0  0  0
  7  9  1  0  0  0  0
  9 10  1  0  0  0  0
 10 11  2  0  0  0  0
 10 12  1  0  0  0  0
 12 13  1  0  0  0  0
 13 14  4  0  0  0  0
 14 15  4  0  0  0  0
 15 16  4  0  0  0  0
 16 17  4  0  0  0  0
 17 18  4  0  0  0  0
 13 18  4  0  0  0  0
 12 19  1  0  0  0  0
 19 20  4  0  0  0  0
 20 21  4  0  0  0  0
 21 22  4  0  0  0  0
 22 23  4  0  0  0  0
 23 24  4  0  0  0  0
 19 24  4  0  0  0  0
M  END

> <ChembankId>
772

> <SMILES>
CCN1CCCC(C1)OC(=O)C(c2ccccc2)c3ccccc3

> <InChI>
1/C21H25NO2/c1-2-22-15-9-14-19(16-22)24-21(23)20(17-10-5-3-6-11-17)18-12-7-4-8-13-18/h3-8,10-13,19-20H,2,9,14-16H2,1H3

$$$$
806
  Marvin  11101114202D          

  9  9  0  0  0  0            999 V2000
   -0.0000    2.4750    0.0000 O   0  0  0  0  0  0  0  0  0  0  0  0
    0.7145    2.0625    0.0000 C   0  0  0  0  0  0  0  0  0  0  0  0
    1.4289    2.4750    0.0000 O   0  0  0  0  0  0  0  0  0  0  0  0
    0.7145    1.2375    0.0000 C   0  0  0  0  0  0  0  0  0  0  0  0
    1.4289    0.8250    0.0000 C   0  0  0  0  0  0  0  0  0  0  0  0
    1.4289    0.0000    0.0000 C   0  0  0  0  0  0  0  0  0  0  0  0
    0.7145   -0.4125    0.0000 C   0  0  0  0  0  0  0  0  0  0  0  0
    0.0000   -0.0000    0.0000 N   0  0  0  0  0  0  0  0  0  0  0  0
   -0.0000    0.8250    0.0000 C   0  0  0  0  0  0  0  0  0  0  0  0
  1  2  1  0  0  0  0
  2  3  2  0  0  0  0
  2  4  1  0  0  0  0
  4  5  1  0  0  0  0
  5  6  1  0  0  0  0
  6  7  1  0  0  0  0
  7  8  1  0  0  0  0
  8  9  1  0  0  0  0
  4  9  1  0  0  0  0
M  END

> <ChembankId>
806

> <SMILES>
OC(=O)C1CCCNC1

> <InChI>
1/C6H11NO2/c8-6(9)5-2-1-3-7-4-5/h5,7H,1-4H2,(H,8,9)

$$$$
824
  Marvin  11101114202D          

 26 30  0  0  1  0            999 V2000
   -0.7420   -2.2988    0.0000 C   0  0  0  0  0  0  0  0  0  0  0  0
    0.0817   -2.2516    0.0000 C   0  0  0  0  0  0  0  0  0  0  0  0
    0.4527   -1.5147    0.0000 C   0  0  1  0  0  0  0  0  0  0  0  0
   -0.3710   -1.5619    0.0000 C   0  0  0  0  0  0  0  0  0  0  0  0
   -0.8237   -0.8721    0.0000 C   0  0  0  0  0  0  0  0  0  0  0  0
   -0.4527   -0.1353    0.0000 C   0  0  0  0  0  0  0  0  0  0  0  0
    0.3710   -0.0881    0.0000 N   0  0  0  0  0  0  0  0  0  0  0  0
    0.7420    0.6488    0.0000 C   0  0  0  0  0  0  0  0  0  0  0  0
    1.5656    0.6959    0.0000 C   0  0  0  0  0  0  0  0  0  0  0  0
    2.0183    0.0062    0.0000 C   0  0  0  0  0  0  0  0  0  0  0  0
    1.6473   -0.7307    0.0000 C   0  0  0  0  0  0  0  0  0  0  0  0
    0.8237   -0.7779    0.0000 C   0  0  2  0  0  0  0  0  0  0  0  0
    0.9053   -2.2045    0.0000 C   0  0  0  0  0  0  0  0  0  0  0  0
    1.7290   -2.1573    0.0000 C   0  0  1  0  0  0  0  0  0  0  0  0
    1.6324   -2.9766    0.0000 O   0  0  0  0  0  0  0  0  0  0  0  0
    2.5191   -2.3947    0.0000 C   0  0  0  0  0  0  0  0  0  0  0  0
    2.7085   -3.1977    0.0000 O   0  0  0  0  0  0  0  0  0  0  0  0
    3.1197   -1.8292    0.0000 O   0  0  0  0  0  0  0  0  0  0  0  0
    3.9098   -2.0666    0.0000 C   0  0  0  0  0  0  0  0  0  0  0  0
    2.1000   -1.4204    0.0000 N   0  0  0  0  0  0  0  0  0  0  0  0
    2.8958   -1.2031    0.0000 C   0  0  0  0  0  0  0  0  0  0  0  0
    3.5899   -1.6491    0.0000 C   0  0  0  0  0  0  0  0  0  0  0  0
    4.3231   -1.2710    0.0000 C   0  0  0  0  0  0  0  0  0  0  0  0
    4.3623   -0.4469    0.0000 C   0  0  0  0  0  0  0  0  0  0  0  0
    3.6683   -0.0009    0.0000 C   0  0  0  0  0  0  0  0  0  0  0  0
    2.9350   -0.3790    0.0000 C   0  0  0  0  0  0  0  0  0  0  0  0
  1  2  1  0  0  0  0
  3  2  1  1  0  0  0
  3  4  1  0  0  0  0
  4  5  1  0  0  0  0
  5  6  1  0  0  0  0
  6  7  1  0  0  0  0
  7  8  1  0  0  0  0
  8  9  1  0  0  0  0
  9 10  1  0  0  0  0
 10 11  4  0  0  0  0
 12 11  1  6  0  0  0
  7 12  1  0  0  0  0
  3 12  1  0  0  0  0
  3 13  1  0  0  0  0
 13 14  1  0  0  0  0
 14 15  1  1  0  0  0
 14 16  1  6  0  0  0
 16 17  2  0  0  0  0
 16 18  1  0  0  0  0
 18 19  1  0  0  0  0
 14 20  1  0  0  0  0
 11 20  4  0  0  0  0
 20 21  4  0  0  0  0
 21 22  4  0  0  0  0
 22 23  4  0  0  0  0
 23 24  4  0  0  0  0
 24 25  4  0  0  0  0
 25 26  4  0  0  0  0
 10 26  4  0  0  0  0
 21 26  4  0  0  0  0
M  END

> <ChembankId>
824

> <SMILES>
CC[C@]1(CCCN2CCc3c4[C@@H]21)C[C@@](O)(C(=O)OC)n4c5ccccc35

> <InChI>
1/C21H26N2O3/c1-3-20-10-6-11-22-12-9-15-14-7-4-5-8-16(14)23(17(15)18(20)22)21(25,13-20)19(24)26-2/h4-5,7-8,18,25H,3,6,9-13H2,1-2H3

$$$$
829
  Marvin  11101114202D          

 38 41  0  0  0  0            999 V2000
   -2.8579   -4.1250    0.0000 C   0  0  0  0  0  0  0  0  0  0  0  0
   -2.1434   -3.7125    0.0000 C   0  0  0  0  0  0  0  0  0  0  0  0
   -1.4289   -4.1250    0.0000 C   0  0  0  0  0  0  0  0  0  0  0  0
   -2.1434   -2.8875    0.0000 C   0  0  0  0  0  0  0  0  0  0  0  0
   -2.8579   -2.4750    0.0000 C   0  0  0  0  0  0  0  0  0  0  0  0
   -3.5724   -2.8875    0.0000 O   0  0  0  0  0  0  0  0  0  0  0  0
   -2.8579   -1.6500    0.0000 C   0  0  0  0  0  0  0  0  0  0  0  0
   -3.5724   -1.2375    0.0000 O   0  0  0  0  0  0  0  0  0  0  0  0
   -2.1434   -1.2375    0.0000 C   0  0  0  0  0  0  0  0  0  0  0  0
   -2.1434   -0.4125    0.0000 C   0  0  0  0  0  0  0  0  0  0  0  0
   -1.4289   -0.0000    0.0000 O   0  0  0  0  0  0  0  0  0  0  0  0
   -1.4289   -1.6500    0.0000 C   0  0  0  0  0  0  0  0  0  0  0  0
   -0.7145   -1.2375    0.0000 C   0  0  0  0  0  0  0  0  0  0  0  0
   -0.7145   -0.4125    0.0000 O   0  0  0  0  0  0  0  0  0  0  0  0
    0.0000   -1.6500    0.0000 C   0  0  0  0  0  0  0  0  0  0  0  0
    0.0000   -2.4750    0.0000 C   0  0  0  0  0  0  0  0  0  0  0  0
    0.7145   -2.8875    0.0000 C   0  0  0  0  0  0  0  0  0  0  0  0
   -0.7145   -2.8875    0.0000 C   0  0  0  0  0  0  0  0  0  0  0  0
   -1.4289   -2.4750    0.0000 C   0  0  0  0  0  0  0  0  0  0  0  0
    0.7145   -1.2375    0.0000 C   0  0  0  0  0  0  0  0  0  0  0  0
    0.7145   -0.4125    0.0000 C   0  0  0  0  0  0  0  0  0  0  0  0
    0.0000    0.0000    0.0000 C   0  0  0  0  0  0  0  0  0  0  0  0
    1.4289    0.0000    0.0000 C   0  0  0  0  0  0  0  0  0  0  0  0
    2.1434   -0.4125    0.0000 C   0  0  0  0  0  0  0  0  0  0  0  0
    2.8579    0.0000    0.0000 C   0  0  0  0  0  0  0  0  0  0  0  0
    2.8579    0.8250    0.0000 C   0  0  0  0  0  0  0  0  0  0  0  0
    2.1434    1.2375    0.0000 C   0  0  0  0  0  0  0  0  0  0  0  0
    3.5724    1.2375    0.0000 C   0  0  0  0  0  0  0  0  0  0  0  0
    3.5724   -0.4125    0.0000 C   0  0  0  0  0  0  0  0  0  0  0  0
    4.2868   -0.0000    0.0000 O   0  0  0  0  0  0  0  0  0  0  0  0
    3.5724   -1.2375    0.0000 C   0  0  0  0  0  0  0  0  0  0  0  0
    4.2868   -1.6500    0.0000 O   0  0  0  0  0  0  0  0  0  0  0  0
    2.8579   -1.6500    0.0000 C   0  0  0  0  0  0  0  0  0  0  0  0
    2.8579   -2.4750    0.0000 C   0  0  0  0  0  0  0  0  0  0  0  0
    2.1434   -2.8875    0.0000 O   0  0  0  0  0  0  0  0  0  0  0  0
    2.1434   -1.2375    0.0000 C   0  0  0  0  0  0  0  0  0  0  0  0
    1.4289   -1.6500    0.0000 C   0  0  0  0  0  0  0  0  0  0  0  0
    1.4289   -2.4750    0.0000 O   0  0  0  0  0  0  0  0  0  0  0  0
  1  2  1  0  0  0  0
  2  3  1  0  0  0  0
  2  4  1  0  0  0  0
  4  5  4  0  0  0  0
  5  6  1  0  0  0  0
  5  7  4  0  0  0  0
  7  8  1  0  0  0  0
  7  9  4  0  0  0  0
  9 10  1  0  0  0  0
 10 11  2  0  0  0  0
  9 12  4  0  0  0  0
 12 13  4  0  0  0  0
 13 14  1  0  0  0  0
 13 15  4  0  0  0  0
 15 16  4  0  0  0  0
 16 17  1  0  0  0  0
 16 18  4  0  0  0  0
 18 19  4  0  0  0  0
  4 19  4  0  0  0  0
 12 19  4  0  0  0  0
 15 20  1  0  0  0  0
 20 21  4  0  0  0  0
 21 22  1  0  0  0  0
 21 23  4  0  0  0  0
 23 24  4  0  0  0  0
 24 25  4  0  0  0  0
 25 26  1  0  0  0  0
 26 27  1  0  0  0  0
 26 28  1  0  0  0  0
 25 29  4  0  0  0  0
 29 30  1  0  0  0  0
 29 31  4  0  0  0  0
 31 32  1  0  0  0  0
 31 33  4  0  0  0  0
 33 34  1  0  0  0  0
 34 35  2  0  0  0  0
 33 36  4  0  0  0  0
 24 36  4  0  0  0  0
 36 37  4  0  0  0  0
 20 37  4  0  0  0  0
 37 38  1  0  0  0  0
M  END

> <ChembankId>
829

> <SMILES>
CC(C)c1c(O)c(O)c(C=O)c2c(O)c(c(C)cc12)c3c(C)cc4c(C(C)C)c(O)c(O)c(C=O)c4c3O

> <InChI>
1/C30H30O8/c1-11(2)19-15-7-13(5)21(27(35)23(15)17(9-31)25(33)29(19)37)22-14(6)8-16-20(12(3)4)30(38)26(34)18(10-32)24(16)28(22)36/h7-12,33-38H,1-6H3

$$$$
837
  Marvin  11101114202D          

 16 17  0  0  0  0            999 V2000
   -0.7145   -2.8875    0.0000 C   0  0  0  0  0  0  0  0  0  0  0  0
    0.0000   -2.4750    0.0000 C   0  0  0  0  0  0  0  0  0  0  0  0
    0.0000   -1.6500    0.0000 O   0  0  0  0  0  0  0  0  0  0  0  0
    0.7145   -1.2375    0.0000 C   0  0  0  0  0  0  0  0  0  0  0  0
    0.7145   -0.4125    0.0000 C   0  0  0  0  0  0  0  0  0  0  0  0
    1.4289    0.0000    0.0000 C   0  0  0  0  0  0  0  0  0  0  0  0
    2.1434   -0.4125    0.0000 C   0  0  0  0  0  0  0  0  0  0  0  0
    2.8579    0.0000    0.0000 N   0  0  0  0  0  0  0  0  0  0  0  0
    3.5724   -0.4125    0.0000 C   0  0  0  0  0  0  0  0  0  0  0  0
    3.8545    0.3627    0.0000 C   0  0  0  0  0  0  0  0  0  0  0  0
    4.3848   -0.5558    0.0000 C   0  0  0  0  0  0  0  0  0  0  0  0
    3.5724   -1.2375    0.0000 C   0  0  0  0  0  0  0  0  0  0  0  0
    2.8579   -1.6500    0.0000 C   0  0  0  0  0  0  0  0  0  0  0  0
    2.8579   -2.4750    0.0000 C   0  0  0  0  0  0  0  0  0  0  0  0
    2.1434   -1.2375    0.0000 C   0  0  0  0  0  0  0  0  0  0  0  0
    1.4289   -1.6500    0.0000 C   0  0  0  0  0  0  0  0  0  0  0  0
  1  2  1  0  0  0  0
  2  3  1  0  0  0  0
  3  4  1  0  0  0  0
  4  5  4  0  0  0  0
  5  6  4  0  0  0  0
  6  7  4  0  0  0  0
  7  8  1  0  0  0  0
  8  9  1  0  0  0  0
  9 10  1  0  0  0  0
  9 11  1  0  0  0  0
  9 12  1  0  0  0  0
 12 13  2  0  0  0  0
 13 14  1  0  0  0  0
 13 15  1  0  0  0  0
  7 15  4  0  0  0  0
 15 16  4  0  0  0  0
  4 16  4  0  0  0  0
M  END

> <ChembankId>
837

> <SMILES>
CCOc1ccc2NC(C)(C)C=C(C)c2c1

> <InChI>
1/C14H19NO/c1-5-16-11-6-7-13-12(8-11)10(2)9-14(3,4)15-13/h6-9,15H,5H2,1-4H3

$$$$
1000108
  Marvin  11101114202D          

 44 48  0  0  1  0            999 V2000
    3.7421   -2.1737    0.0000 N   0  0  0  0  0  0  0  0  0  0  0  0
    4.5626   -2.2599    0.0000 C   0  0  0  0  0  0  0  0  0  0  0  0
    4.8982   -3.0136    0.0000 O   0  0  0  0  0  0  0  0  0  0  0  0
    5.0475   -1.5925    0.0000 C   0  0  0  0  0  0  0  0  0  0  0  0
    4.7120   -0.8388    0.0000 C   0  0  0  0  0  0  0  0  0  0  0  0
    5.1969   -0.1714    0.0000 C   0  0  0  0  0  0  0  0  0  0  0  0
    6.0174   -0.2576    0.0000 C   0  0  0  0  0  0  0  0  0  0  0  0
    6.3529   -1.0113    0.0000 N   0  3  0  0  0  0  0  0  0  0  0  0
    5.8680   -1.6787    0.0000 C   0  0  0  0  0  0  0  0  0  0  0  0
    7.1734   -1.0975    0.0000 C   0  0  2  0  0  0  0  0  0  0  0  0
    7.7254   -0.4844    0.0000 O   0  0  0  0  0  0  0  0  0  0  0  0
    8.4791   -0.8200    0.0000 C   0  0  2  0  0  0  0  0  0  0  0  0
    9.1936   -0.4075    0.0000 C   0  0  0  0  0  0  0  0  0  0  0  0
    9.9081   -0.8200    0.0000 O   0  0  0  0  0  0  0  0  0  0  0  0
   10.6225   -0.4075    0.0000 P   0  0  0  0  0  0  0  0  0  0  0  0
   11.0350   -1.1220    0.0000 O   0  0  0  0  0  0  0  0  0  0  0  0
   10.2100    0.3070    0.0000 O   0  0  0  0  0  0  0  0  0  0  0  0
   11.3370    0.0050    0.0000 O   0  0  0  0  0  0  0  0  0  0  0  0
   12.0515   -0.4075    0.0000 P   0  0  0  0  0  0  0  0  0  0  0  0
   11.6390   -1.1220    0.0000 O   0  0  0  0  0  0  0  0  0  0  0  0
   12.4640    0.3070    0.0000 O   0  0  0  0  0  0  0  0  0  0  0  0
   12.7659   -0.8200    0.0000 O   0  0  0  0  0  0  0  0  0  0  0  0
   13.4804   -0.4075    0.0000 C   0  0  0  0  0  0  0  0  0  0  0  0
   14.1949   -0.8200    0.0000 C   0  0  1  0  0  0  0  0  0  0  0  0
   14.9486   -0.4844    0.0000 O   0  0  0  0  0  0  0  0  0  0  0  0
   15.5006   -1.0975    0.0000 C   0  0  2  0  0  0  0  0  0  0  0  0
   15.0881   -1.8120    0.0000 C   0  0  2  0  0  0  0  0  0  0  0  0
   15.4237   -2.5657    0.0000 O   0  0  0  0  0  0  0  0  0  0  0  0
   14.2811   -1.6405    0.0000 C   0  0  2  0  0  0  0  0  0  0  0  0
   13.6680   -2.1925    0.0000 O   0  0  0  0  0  0  0  0  0  0  0  0
   16.3211   -1.0113    0.0000 N   0  0  0  0  0  0  0  0  0  0  0  0
   16.7336   -0.2968    0.0000 C   0  0  0  0  0  0  0  0  0  0  0  0
   17.5405   -0.4684    0.0000 N   0  0  0  0  0  0  0  0  0  0  0  0
   17.6268   -1.2888    0.0000 C   0  0  0  0  0  0  0  0  0  0  0  0
   18.2942   -1.7738    0.0000 C   0  0  0  0  0  0  0  0  0  0  0  0
   19.0479   -1.4382    0.0000 N   0  0  0  0  0  0  0  0  0  0  0  0
   18.2080   -2.5942    0.0000 N   0  0  0  0  0  0  0  0  0  0  0  0
   17.4543   -2.9298    0.0000 C   0  0  0  0  0  0  0  0  0  0  0  0
   16.7869   -2.4449    0.0000 N   0  0  0  0  0  0  0  0  0  0  0  0
   16.8731   -1.6244    0.0000 C   0  0  0  0  0  0  0  0  0  0  0  0
    8.3929   -1.6405    0.0000 C   0  0  1  0  0  0  0  0  0  0  0  0
    9.0060   -2.1925    0.0000 O   0  0  0  0  0  0  0  0  0  0  0  0
    7.5859   -1.8120    0.0000 C   0  0  1  0  0  0  0  0  0  0  0  0
    7.2504   -2.5657    0.0000 O   0  0  0  0  0  0  0  0  0  0  0  0
  1  2  1  0  0  0  0
  2  3  2  0  0  0  0
  2  4  1  0  0  0  0
  4  5  4  0  0  0  0
  5  6  4  0  0  0  0
  6  7  4  0  0  0  0
  7  8  4  0  0  0  0
  8  9  4  0  0  0  0
  4  9  4  0  0  0  0
 10  8  1  6  0  0  0
 10 11  1  0  0  0  0
 11 12  1  0  0  0  0
 12 13  1  6  0  0  0
 13 14  1  0  0  0  0
 14 15  1  0  0  0  0
 15 16  2  0  0  0  0
 15 17  1  0  0  0  0
 15 18  1  0  0  0  0
 18 19  1  0  0  0  0
 19 20  2  0  0  0  0
 19 21  1  0  0  0  0
 19 22  1  0  0  0  0
 22 23  1  0  0  0  0
 24 23  1  1  0  0  0
 24 25  1  0  0  0  0
 25 26  1  0  0  0  0
 26 27  1  0  0  0  0
 27 28  1  6  0  0  0
 27 29  1  0  0  0  0
 24 29  1  0  0  0  0
 29 30  1  6  0  0  0
 26 31  1  1  0  0  0
 31 32  4  0  0  0  0
 32 33  4  0  0  0  0
 33 34  4  0  0  0  0
 34 35  4  0  0  0  0
 35 36  1  0  0  0  0
 35 37  4  0  0  0  0
 37 38  4  0  0  0  0
 38 39  4  0  0  0  0
 39 40  4  0  0  0  0
 31 40  4  0  0  0  0
 34 40  4  0  0  0  0
 12 41  1  0  0  0  0
 41 42  1  1  0  0  0
 41 43  1  0  0  0  0
 10 43  1  0  0  0  0
 43 44  1  1  0  0  0
M  CHG  1   8   1
M  END

> <ChembankId>
1000108

> <SMILES>
NC(=O)c1ccc[n+](c1)[C@@H]2O[C@H](COP(=O)(O)OP(=O)(O)OC[C@H]3O[C@H]([C@H](O)[C@@H]3O)n4cnc5c(N)ncnc45)[C@@H](O)[C@H]2O

> <InChI>
1/C21H27N7O14P2/c22-17-12-19(25-7-24-17)28(8-26-12)21-16(32)14(30)11(41-21)6-39-44(36,37)42-43(34,35)38-5-10-13(29)15(31)20(40-10)27-3-1-2-9(4-27)18(23)33/h1-4,7-8,10-11,13-16,20-21,29-32H,5-6H2,(H5-,22,23,24,25,33,34,35,36,37)/p+1

$$$$
852
  Marvin  11101114202D          

 29 31  0  0  0  0            999 V2000
   -2.1434   -5.3625    0.0000 C   0  0  0  0  0  0  0  0  0  0  0  0
   -1.4289   -4.9500    0.0000 C   0  0  0  0  0  0  0  0  0  0  0  0
   -1.4289   -4.1250    0.0000 O   0  0  0  0  0  0  0  0  0  0  0  0
   -0.7145   -3.7125    0.0000 C   0  0  0  0  0  0  0  0  0  0  0  0
   -0.7145   -2.8875    0.0000 C   0  0  0  0  0  0  0  0  0  0  0  0
    0.0000   -2.4750    0.0000 C   0  0  0  0  0  0  0  0  0  0  0  0
    0.7145   -2.8875    0.0000 C   0  0  0  0  0  0  0  0  0  0  0  0
    1.4289   -2.4750    0.0000 C   0  0  0  0  0  0  0  0  0  0  0  0
    1.4289   -1.6500    0.0000 C   0  0  0  0  0  0  0  0  0  0  0  0
    0.7145   -1.2375    0.0000 N   0  0  0  0  0  0  0  0  0  0  0  0
    0.7145   -0.4125    0.0000 C   0  0  0  0  0  0  0  0  0  0  0  0
    1.4289    0.0000    0.0000 C   0  0  0  0  0  0  0  0  0  0  0  0
    2.1434   -0.4125    0.0000 C   0  0  0  0  0  0  0  0  0  0  0  0
    2.8579    0.0000    0.0000 C   0  0  0  0  0  0  0  0  0  0  0  0
    3.5724   -0.4125    0.0000 C   0  0  0  0  0  0  0  0  0  0  0  0
    4.2868   -0.0000    0.0000 O   0  0  0  0  0  0  0  0  0  0  0  0
    5.0013   -0.4125    0.0000 C   0  0  0  0  0  0  0  0  0  0  0  0
    5.7158   -0.0000    0.0000 C   0  0  0  0  0  0  0  0  0  0  0  0
    3.5724   -1.2375    0.0000 C   0  0  0  0  0  0  0  0  0  0  0  0
    4.2868   -1.6500    0.0000 O   0  0  0  0  0  0  0  0  0  0  0  0
    5.0013   -1.2375    0.0000 C   0  0  0  0  0  0  0  0  0  0  0  0
    5.7158   -1.6500    0.0000 C   0  0  0  0  0  0  0  0  0  0  0  0
    2.8579   -1.6500    0.0000 C   0  0  0  0  0  0  0  0  0  0  0  0
    2.1434   -1.2375    0.0000 C   0  0  0  0  0  0  0  0  0  0  0  0
    0.7145   -3.7125    0.0000 C   0  0  0  0  0  0  0  0  0  0  0  0
    0.0000   -4.1250    0.0000 C   0  0  0  0  0  0  0  0  0  0  0  0
    0.0000   -4.9500    0.0000 O   0  0  0  0  0  0  0  0  0  0  0  0
    0.7145   -5.3625    0.0000 C   0  0  0  0  0  0  0  0  0  0  0  0
    0.7145   -6.1875    0.0000 C   0  0  0  0  0  0  0  0  0  0  0  0
  1  2  1  0  0  0  0
  2  3  1  0  0  0  0
  3  4  1  0  0  0  0
  4  5  4  0  0  0  0
  5  6  4  0  0  0  0
  6  7  4  0  0  0  0
  7  8  1  0  0  0  0
  8  9  1  0  0  0  0
  9 10  4  0  0  0  0
 10 11  4  0  0  0  0
 11 12  4  0  0  0  0
 12 13  4  0  0  0  0
 13 14  4  0  0  0  0
 14 15  4  0  0  0  0
 15 16  1  0  0  0  0
 16 17  1  0  0  0  0
 17 18  1  0  0  0  0
 15 19  4  0  0  0  0
 19 20  1  0  0  0  0
 20 21  1  0  0  0  0
 21 22  1  0  0  0  0
 19 23  4  0  0  0  0
 23 24  4  0  0  0  0
  9 24  4  0  0  0  0
 13 24  4  0  0  0  0
  7 25  4  0  0  0  0
 25 26  4  0  0  0  0
  4 26  4  0  0  0  0
 26 27  1  0  0  0  0
 27 28  1  0  0  0  0
 28 29  1  0  0  0  0
M  END

> <ChembankId>
852

> <SMILES>
CCOc1ccc(Cc2nccc3cc(OCC)c(OCC)cc23)cc1OCC

> <InChI>
1/C24H29NO4/c1-5-26-21-10-9-17(14-22(21)27-6-2)13-20-19-16-24(29-8-4)23(28-7-3)15-18(19)11-12-25-20/h9-12,14-16H,5-8,13H2,1-4H3

$$$$
863
  Marvin  11101114202D          

 21 23  0  0  0  0            999 V2000
    2.1434   -0.4125    0.0000 C   0  0  0  0  0  0  0  0  0  0  0  0
    2.1434   -1.2375    0.0000 N   0  0  0  0  0  0  0  0  0  0  0  0
    2.8579   -1.6500    0.0000 C   0  0  0  0  0  0  0  0  0  0  0  0
    2.8579   -2.4750    0.0000 C   0  0  0  0  0  0  0  0  0  0  0  0
    2.1434   -2.8875    0.0000 N   0  0  0  0  0  0  0  0  0  0  0  0
    1.4289   -2.4750    0.0000 C   0  0  0  0  0  0  0  0  0  0  0  0
    1.4289   -1.6500    0.0000 C   0  0  0  0  0  0  0  0  0  0  0  0
    2.1434   -3.7125    0.0000 C   0  0  0  0  0  0  0  0  0  0  0  0
    2.8579   -4.1250    0.0000 C   0  0  0  0  0  0  0  0  0  0  0  0
    3.5724   -3.7125    0.0000 C   0  0  0  0  0  0  0  0  0  0  0  0
    4.2868   -4.1250    0.0000 C   0  0  0  0  0  0  0  0  0  0  0  0
    4.2868   -4.9500    0.0000 C   0  0  0  0  0  0  0  0  0  0  0  0
    3.5724   -5.3625    0.0000 C   0  0  0  0  0  0  0  0  0  0  0  0
    2.8579   -4.9500    0.0000 C   0  0  0  0  0  0  0  0  0  0  0  0
    1.4289   -4.1250    0.0000 C   0  0  0  0  0  0  0  0  0  0  0  0
    1.4289   -4.9500    0.0000 C   0  0  0  0  0  0  0  0  0  0  0  0
    0.7145   -5.3625    0.0000 C   0  0  0  0  0  0  0  0  0  0  0  0
   -0.0000   -4.9500    0.0000 C   0  0  0  0  0  0  0  0  0  0  0  0
   -0.7145   -5.3625    0.0000 Cl  0  0  0  0  0  0  0  0  0  0  0  0
   -0.0000   -4.1250    0.0000 C   0  0  0  0  0  0  0  0  0  0  0  0
    0.7145   -3.7125    0.0000 C   0  0  0  0  0  0  0  0  0  0  0  0
  1  2  1  0  0  0  0
  2  3  1  0  0  0  0
  3  4  1  0  0  0  0
  4  5  1  0  0  0  0
  5  6  1  0  0  0  0
  6  7  1  0  0  0  0
  2  7  1  0  0  0  0
  5  8  1  0  0  0  0
  8  9  1  0  0  0  0
  9 10  4  0  0  0  0
 10 11  4  0  0  0  0
 11 12  4  0  0  0  0
 12 13  4  0  0  0  0
 13 14  4  0  0  0  0
  9 14  4  0  0  0  0
  8 15  1  0  0  0  0
 15 16  4  0  0  0  0
 16 17  4  0  0  0  0
 17 18  4  0  0  0  0
 18 19  1  0  0  0  0
 18 20  4  0  0  0  0
 20 21  4  0  0  0  0
 15 21  4  0  0  0  0
M  END

> <ChembankId>
863

> <SMILES>
CN1CCN(CC1)C(c2ccccc2)c3ccc(Cl)cc3

> <InChI>
1/C18H21ClN2/c1-20-11-13-21(14-12-20)18(15-5-3-2-4-6-15)16-7-9-17(19)10-8-16/h2-10,18H,11-14H2,1H3

$$$$
864
  Marvin  11101114202D          

 10 11  0  0  0  0            999 V2000
    0.8838   -2.1500    0.0000 O   0  0  0  0  0  0  0  0  0  0  0  0
    1.1387   -1.3654    0.0000 C   0  0  0  0  0  0  0  0  0  0  0  0
    0.6538   -0.6979    0.0000 N   0  0  0  0  0  0  0  0  0  0  0  0
    1.1387   -0.0305    0.0000 O   0  0  0  0  0  0  0  0  0  0  0  0
    1.9233   -0.2854    0.0000 C   0  0  0  0  0  0  0  0  0  0  0  0
    2.6378    0.1271    0.0000 C   0  0  0  0  0  0  0  0  0  0  0  0
    3.3523   -0.2854    0.0000 N   0  0  0  0  0  0  0  0  0  0  0  0
    3.3523   -1.1104    0.0000 C   0  0  0  0  0  0  0  0  0  0  0  0
    2.6378   -1.5229    0.0000 C   0  0  0  0  0  0  0  0  0  0  0  0
    1.9233   -1.1104    0.0000 C   0  0  0  0  0  0  0  0  0  0  0  0
  1  2  1  0  0  0  0
  2  3  4  0  0  0  0
  3  4  4  0  0  0  0
  4  5  4  0  0  0  0
  5  6  1  0  0  0  0
  6  7  1  0  0  0  0
  7  8  1  0  0  0  0
  8  9  1  0  0  0  0
  9 10  1  0  0  0  0
  2 10  4  0  0  0  0
  5 10  4  0  0  0  0
M  END

> <ChembankId>
864

> <SMILES>
Oc1noc2CNCCc12

> <InChI>
1/C6H8N2O2/c9-6-4-1-2-7-3-5(4)10-8-6/h7H,1-3H2,(H,8,9)

$$$$
887
  Marvin  11101114202D          

 19 20  0  0  0  0            999 V2000
    1.4289   -0.8250    0.0000 C   0  0  0  0  0  0  0  0  0  0  0  0
    2.1434   -1.2375    0.0000 O   0  0  0  0  0  0  0  0  0  0  0  0
    2.1434   -2.0625    0.0000 C   0  0  0  0  0  0  0  0  0  0  0  0
    2.8579   -2.4750    0.0000 C   0  0  0  0  0  0  0  0  0  0  0  0
    2.8579   -3.3000    0.0000 C   0  0  0  0  0  0  0  0  0  0  0  0
    2.1434   -3.7125    0.0000 C   0  0  0  0  0  0  0  0  0  0  0  0
    2.1434   -4.5375    0.0000 N   0  0  0  0  0  0  0  0  0  0  0  0
    1.4289   -4.9500    0.0000 S   0  0  0  0  0  0  0  0  0  0  0  0
    1.0164   -4.2355    0.0000 O   0  0  0  0  0  0  0  0  0  0  0  0
    1.8414   -5.6645    0.0000 O   0  0  0  0  0  0  0  0  0  0  0  0
    0.7145   -5.3625    0.0000 C   0  0  0  0  0  0  0  0  0  0  0  0
    0.7145   -6.1875    0.0000 C   0  0  0  0  0  0  0  0  0  0  0  0
   -0.0000   -6.6000    0.0000 C   0  0  0  0  0  0  0  0  0  0  0  0
   -0.7145   -6.1875    0.0000 C   0  0  0  0  0  0  0  0  0  0  0  0
   -1.4289   -6.6000    0.0000 N   0  0  0  0  0  0  0  0  0  0  0  0
   -0.7145   -5.3625    0.0000 C   0  0  0  0  0  0  0  0  0  0  0  0
   -0.0000   -4.9500    0.0000 C   0  0  0  0  0  0  0  0  0  0  0  0
    1.4289   -3.3000    0.0000 N   0  0  0  0  0  0  0  0  0  0  0  0
    1.4289   -2.4750    0.0000 N   0  0  0  0  0  0  0  0  0  0  0  0
  1  2  1  0  0  0  0
  2  3  1  0  0  0  0
  3  4  4  0  0  0  0
  4  5  4  0  0  0  0
  5  6  4  0  0  0  0
  6  7  1  0  0  0  0
  7  8  1  0  0  0  0
  8  9  2  0  0  0  0
  8 10  2  0  0  0  0
  8 11  1  0  0  0  0
 11 12  4  0  0  0  0
 12 13  4  0  0  0  0
 13 14  4  0  0  0  0
 14 15  1  0  0  0  0
 14 16  4  0  0  0  0
 16 17  4  0  0  0  0
 11 17  4  0  0  0  0
  6 18  4  0  0  0  0
 18 19  4  0  0  0  0
  3 19  4  0  0  0  0
M  END

> <ChembankId>
887

> <SMILES>
COc1ccc(NS(=O)(=O)c2ccc(N)cc2)nn1

> <InChI>
1/C11H12N4O3S/c1-18-11-7-6-10(13-14-11)15-19(16,17)9-4-2-8(12)3-5-9/h2-7H,12H2,1H3,(H,13,15)

$$$$
893
  Marvin  11101114202D          

 11 11  0  0  0  0            999 V2000
    1.4289   -2.4750    0.0000 N   0  0  0  0  0  0  0  0  0  0  0  0
    1.4289   -1.6500    0.0000 C   0  0  0  0  0  0  0  0  0  0  0  0
    0.7145   -1.2375    0.0000 C   0  0  0  0  0  0  0  0  0  0  0  0
    0.0000   -1.6500    0.0000 O   0  0  0  0  0  0  0  0  0  0  0  0
    0.7145   -0.4125    0.0000 C   0  0  0  0  0  0  0  0  0  0  0  0
   -0.0000    0.0000    0.0000 C   0  0  0  0  0  0  0  0  0  0  0  0
    0.0000    0.8250    0.0000 C   0  0  0  0  0  0  0  0  0  0  0  0
    0.7145    1.2375    0.0000 C   0  0  0  0  0  0  0  0  0  0  0  0
    0.7145    2.0625    0.0000 O   0  0  0  0  0  0  0  0  0  0  0  0
    1.4289    0.8250    0.0000 C   0  0  0  0  0  0  0  0  0  0  0  0
    1.4289    0.0000    0.0000 C   0  0  0  0  0  0  0  0  0  0  0  0
  1  2  1  0  0  0  0
  2  3  1  0  0  0  0
  3  4  1  0  0  0  0
  3  5  1  0  0  0  0
  5  6  4  0  0  0  0
  6  7  4  0  0  0  0
  7  8  4  0  0  0  0
  8  9  1  0  0  0  0
  8 10  4  0  0  0  0
 10 11  4  0  0  0  0
  5 11  4  0  0  0  0
M  END

> <ChembankId>
893

> <SMILES>
NCC(O)c1ccc(O)cc1

> <InChI>
1/C8H11NO2/c9-5-8(11)6-1-3-7(10)4-2-6/h1-4,8,10-11H,5,9H2

$$$$
946
  Marvin  11101114202D          

 15 15  0  0  0  0            999 V2000
   -4.2241   -0.3712    0.0000 O   0  0  0  0  0  0  0  0  0  0  0  0
   -3.5097   -0.7837    0.0000 C   0  0  0  0  0  0  0  0  0  0  0  0
   -2.7952   -0.3712    0.0000 C   0  0  0  0  0  0  0  0  0  0  0  0
   -2.0807   -0.7837    0.0000 N   0  0  0  0  0  0  0  0  0  0  0  0
   -1.3663   -0.3712    0.0000 C   0  0  0  0  0  0  0  0  0  0  0  0
   -1.3663    0.4538    0.0000 O   0  0  0  0  0  0  0  0  0  0  0  0
   -0.6518   -0.7837    0.0000 C   0  0  0  0  0  0  0  0  0  0  0  0
    0.0627   -0.3712    0.0000 N   0  0  0  0  0  0  0  0  0  0  0  0
    0.1489    0.4493    0.0000 C   0  0  0  0  0  0  0  0  0  0  0  0
    0.9559    0.6209    0.0000 C   0  0  0  0  0  0  0  0  0  0  0  0
    1.3684   -0.0936    0.0000 N   0  0  0  0  0  0  0  0  0  0  0  0
    0.8164   -0.7067    0.0000 C   0  0  0  0  0  0  0  0  0  0  0  0
    0.9879   -1.5137    0.0000 N   0  3  0  0  0  0  0  0  0  0  0  0
    1.7725   -1.7686    0.0000 O   0  0  0  0  0  0  0  0  0  0  0  0
    0.3748   -2.0657    0.0000 O   0  5  0  0  0  0  0  0  0  0  0  0
  1  2  1  0  0  0  0
  2  3  1  0  0  0  0
  3  4  1  0  0  0  0
  4  5  1  0  0  0  0
  5  6  2  0  0  0  0
  5  7  1  0  0  0  0
  7  8  1  0  0  0  0
  8  9  4  0  0  0  0
  9 10  4  0  0  0  0
 10 11  4  0  0  0  0
 11 12  4  0  0  0  0
  8 12  4  0  0  0  0
 12 13  1  0  0  0  0
 13 14  2  0  0  0  0
 13 15  1  0  0  0  0
M  CHG  2  13   1  15  -1
M  END

> <ChembankId>
946

> <SMILES>
OCCNC(=O)Cn1ccnc1[N+](=O)[O-]

> <InChI>
1/C7H10N4O4/c12-4-2-8-6(13)5-10-3-1-9-7(10)11(14)15/h1,3,12H,2,4-5H2,(H,8,13)

$$$$
989
  Marvin  11101114202D          

 12 11  0  0  0  0            999 V2000
    2.2836    2.1434    0.0000 N   0  0  0  0  0  0  0  0  0  0  0  0
    2.9980    2.5559    0.0000 C   0  0  0  0  0  0  0  0  0  0  0  0
    2.9980    3.3809    0.0000 N   0  0  0  0  0  0  0  0  0  0  0  0
    3.7125    2.1434    0.0000 N   0  0  0  0  0  0  0  0  0  0  0  0
    4.4270    2.5559    0.0000 C   0  0  0  0  0  0  0  0  0  0  0  0
    5.1414    2.1434    0.0000 C   0  0  0  0  0  0  0  0  0  0  0  0
    5.8559    2.5559    0.0000 C   0  0  0  0  0  0  0  0  0  0  0  0
    6.5704    2.1434    0.0000 C   0  0  0  0  0  0  0  0  0  0  0  0
    7.2849    2.5559    0.0000 N   0  0  0  0  0  0  0  0  0  0  0  0
    7.9993    2.1434    0.0000 C   0  0  0  0  0  0  0  0  0  0  0  0
    8.7138    2.5559    0.0000 N   0  0  0  0  0  0  0  0  0  0  0  0
    7.9993    1.3184    0.0000 N   0  0  0  0  0  0  0  0  0  0  0  0
  1  2  1  0  0  0  0
  2  3  2  0  0  0  0
  2  4  1  0  0  0  0
  4  5  1  0  0  0  0
  5  6  1  0  0  0  0
  6  7  1  0  0  0  0
  7  8  1  0  0  0  0
  8  9  1  0  0  0  0
  9 10  1  0  0  0  0
 10 11  2  0  0  0  0
 10 12  1  0  0  0  0
M  END

> <ChembankId>
989

> <SMILES>
NC(=N)NCCCCNC(=N)N

> <InChI>
1/C6H16N6/c7-5(8)11-3-1-2-4-12-6(9)10/h1-4H2,(H4,7,8,11)(H4,9,10,12)

$$$$
994
  Marvin  11101114202D          

 12 11  0  0  1  0            999 V2000
    7.2849    3.3809    0.0000 N   0  0  0  0  0  0  0  0  0  0  0  0
    7.2849    2.5559    0.0000 C   0  0  1  0  0  0  0  0  0  0  0  0
    6.5704    2.1434    0.0000 C   0  0  0  0  0  0  0  0  0  0  0  0
    5.8559    2.5559    0.0000 C   0  0  0  0  0  0  0  0  0  0  0  0
    5.1414    2.1434    0.0000 O   0  0  0  0  0  0  0  0  0  0  0  0
    4.4270    2.5559    0.0000 N   0  0  0  0  0  0  0  0  0  0  0  0
    3.7125    2.1434    0.0000 C   0  0  0  0  0  0  0  0  0  0  0  0
    2.9980    2.5559    0.0000 N   0  0  0  0  0  0  0  0  0  0  0  0
    3.7125    1.3184    0.0000 N   0  0  0  0  0  0  0  0  0  0  0  0
    7.9993    2.1434    0.0000 C   0  0  0  0  0  0  0  0  0  0  0  0
    8.7138    2.5559    0.0000 O   0  0  0  0  0  0  0  0  0  0  0  0
    7.9993    1.3184    0.0000 O   0  0  0  0  0  0  0  0  0  0  0  0
  2  1  1  6  0  0  0
  2  3  1  0  0  0  0
  3  4  1  0  0  0  0
  4  5  1  0  0  0  0
  5  6  1  0  0  0  0
  6  7  1  0  0  0  0
  7  8  2  0  0  0  0
  7  9  1  0  0  0  0
  2 10  1  0  0  0  0
 10 11  2  0  0  0  0
 10 12  1  0  0  0  0
M  END

> <ChembankId>
994

> <SMILES>
N[C@@H](CCONC(=N)N)C(=O)O

> <InChI>
1/C5H12N4O3/c6-3(4(10)11)1-2-12-9-5(7)8/h3H,1-2,6H2,(H,10,11)(H4,7,8,9)

$$$$
1005
  Marvin  11101114202D          

 22 24  0  0  0  0            999 V2000
    2.0625    2.3645    0.0000 O   0  0  0  0  0  0  0  0  0  0  0  0
    2.8875    2.3645    0.0000 C   0  0  0  0  0  0  0  0  0  0  0  0
    2.8875    1.5395    0.0000 C   0  0  0  0  0  0  0  0  0  0  0  0
    3.6020    1.1270    0.0000 C   0  0  0  0  0  0  0  0  0  0  0  0
    3.6020    0.3020    0.0000 N   0  0  0  0  0  0  0  0  0  0  0  0
    4.3164   -0.1105    0.0000 C   0  0  0  0  0  0  0  0  0  0  0  0
    4.3164   -0.9355    0.0000 C   0  0  0  0  0  0  0  0  0  0  0  0
    3.6020   -1.3480    0.0000 C   0  0  0  0  0  0  0  0  0  0  0  0
    2.8875   -0.9355    0.0000 C   0  0  0  0  0  0  0  0  0  0  0  0
    2.8875   -0.1105    0.0000 C   0  0  0  0  0  0  0  0  0  0  0  0
    2.8875    3.1895    0.0000 C   0  0  0  0  0  0  0  0  0  0  0  0
    2.1730    3.6020    0.0000 C   0  0  0  0  0  0  0  0  0  0  0  0
    2.1730    4.4270    0.0000 C   0  0  0  0  0  0  0  0  0  0  0  0
    2.8875    4.8395    0.0000 C   0  0  0  0  0  0  0  0  0  0  0  0
    3.6020    4.4270    0.0000 C   0  0  0  0  0  0  0  0  0  0  0  0
    3.6020    3.6020    0.0000 C   0  0  0  0  0  0  0  0  0  0  0  0
    3.7125    2.3645    0.0000 C   0  0  0  0  0  0  0  0  0  0  0  0
    4.1250    3.0789    0.0000 C   0  0  0  0  0  0  0  0  0  0  0  0
    4.9500    3.0789    0.0000 C   0  0  0  0  0  0  0  0  0  0  0  0
    5.3625    2.3645    0.0000 C   0  0  0  0  0  0  0  0  0  0  0  0
    4.9500    1.6500    0.0000 C   0  0  0  0  0  0  0  0  0  0  0  0
    4.1250    1.6500    0.0000 C   0  0  0  0  0  0  0  0  0  0  0  0
  1  2  1  0  0  0  0
  2  3  1  0  0  0  0
  3  4  1  0  0  0  0
  4  5  1  0  0  0  0
  5  6  1  0  0  0  0
  6  7  1  0  0  0  0
  7  8  1  0  0  0  0
  8  9  1  0  0  0  0
  9 10  1  0  0  0  0
  5 10  1  0  0  0  0
  2 11  1  0  0  0  0
 11 12  1  0  0  0  0
 12 13  1  0  0  0  0
 13 14  1  0  0  0  0
 14 15  1  0  0  0  0
 15 16  1  0  0  0  0
 11 16  1  0  0  0  0
  2 17  1  0  0  0  0
 17 18  4  0  0  0  0
 18 19  4  0  0  0  0
 19 20  4  0  0  0  0
 20 21  4  0  0  0  0
 21 22  4  0  0  0  0
 17 22  4  0  0  0  0
M  END

> <ChembankId>
1005

> <SMILES>
OC(CCN1CCCCC1)(C2CCCCC2)c3ccccc3

> <InChI>
1/C20H31NO/c22-20(18-10-4-1-5-11-18,19-12-6-2-7-13-19)14-17-21-15-8-3-9-16-21/h1,4-5,10-11,19,22H,2-3,6-9,12-17H2

$$$$
1008
  Marvin  11101114202D          

 19 21  0  0  0  0            999 V2000
    0.7145   -2.8875    0.0000 O   0  0  0  0  0  0  0  0  0  0  0  0
    0.7145   -3.7125    0.0000 C   0  0  0  0  0  0  0  0  0  0  0  0
    1.4289   -4.1250    0.0000 C   0  0  0  0  0  0  0  0  0  0  0  0
    1.4289   -4.9500    0.0000 C   0  0  0  0  0  0  0  0  0  0  0  0
    0.7145   -5.3625    0.0000 C   0  0  0  0  0  0  0  0  0  0  0  0
    0.0000   -4.9500    0.0000 C   0  0  0  0  0  0  0  0  0  0  0  0
    0.0000   -4.1250    0.0000 C   0  0  0  0  0  0  0  0  0  0  0  0
   -0.7145   -3.7125    0.0000 N   0  0  0  0  0  0  0  0  0  0  0  0
   -1.4289   -4.1250    0.0000 C   0  0  0  0  0  0  0  0  0  0  0  0
   -2.1434   -3.7125    0.0000 C   0  0  0  0  0  0  0  0  0  0  0  0
   -2.1434   -2.8875    0.0000 C   0  0  0  0  0  0  0  0  0  0  0  0
   -1.4289   -2.4750    0.0000 C   0  0  0  0  0  0  0  0  0  0  0  0
   -0.7145   -2.8875    0.0000 C   0  0  0  0  0  0  0  0  0  0  0  0
   -2.8579   -2.4750    0.0000 C   0  0  0  0  0  0  0  0  0  0  0  0
   -3.5724   -2.8875    0.0000 C   0  0  0  0  0  0  0  0  0  0  0  0
   -4.2868   -2.4750    0.0000 C   0  0  0  0  0  0  0  0  0  0  0  0
   -4.2868   -1.6500    0.0000 C   0  0  0  0  0  0  0  0  0  0  0  0
   -3.5724   -1.2375    0.0000 C   0  0  0  0  0  0  0  0  0  0  0  0
   -2.8579   -1.6500    0.0000 C   0  0  0  0  0  0  0  0  0  0  0  0
  1  2  1  0  0  0  0
  2  3  1  0  0  0  0
  3  4  1  0  0  0  0
  4  5  1  0  0  0  0
  5  6  1  0  0  0  0
  6  7  1  0  0  0  0
  2  7  1  0  0  0  0
  7  8  1  0  0  0  0
  8  9  1  0  0  0  0
  9 10  1  0  0  0  0
 10 11  1  0  0  0  0
 11 12  1  0  0  0  0
 12 13  1  0  0  0  0
  8 13  1  0  0  0  0
 11 14  1  0  0  0  0
 14 15  4  0  0  0  0
 15 16  4  0  0  0  0
 16 17  4  0  0  0  0
 17 18  4  0  0  0  0
 18 19  4  0  0  0  0
 14 19  4  0  0  0  0
M  END

> <ChembankId>
1008

> <SMILES>
OC1CCCCC1N2CCC(CC2)c3ccccc3

> <InChI>
1/C17H25NO/c19-17-9-5-4-8-16(17)18-12-10-15(11-13-18)14-6-2-1-3-7-14/h1-3,6-7,15-17,19H,4-5,8-13H2

$$$$
1039
  Marvin  11101114202D          

 22 26  0  0  1  0            999 V2000
   -0.7420   -2.2988    0.0000 C   0  0  0  0  0  0  0  0  0  0  0  0
    0.0817   -2.2516    0.0000 C   0  0  0  0  0  0  0  0  0  0  0  0
    0.4527   -1.5147    0.0000 C   0  0  1  0  0  0  0  0  0  0  0  0
   -0.3710   -1.5619    0.0000 C   0  0  0  0  0  0  0  0  0  0  0  0
   -0.8237   -0.8721    0.0000 C   0  0  0  0  0  0  0  0  0  0  0  0
   -0.4527   -0.1353    0.0000 C   0  0  0  0  0  0  0  0  0  0  0  0
    0.3710   -0.0881    0.0000 N   0  0  0  0  0  0  0  0  0  0  0  0
    0.7420    0.6488    0.0000 C   0  0  0  0  0  0  0  0  0  0  0  0
    1.5656    0.6959    0.0000 C   0  0  0  0  0  0  0  0  0  0  0  0
    2.0183    0.0062    0.0000 C   0  0  0  0  0  0  0  0  0  0  0  0
    1.6473   -0.7307    0.0000 C   0  0  0  0  0  0  0  0  0  0  0  0
    0.8237   -0.7779    0.0000 C   0  0  2  0  0  0  0  0  0  0  0  0
    0.9053   -2.2045    0.0000 C   0  0  0  0  0  0  0  0  0  0  0  0
    1.7290   -2.1573    0.0000 C   0  0  0  0  0  0  0  0  0  0  0  0
    2.1816   -2.8470    0.0000 O   0  0  0  0  0  0  0  0  0  0  0  0
    2.1000   -1.4204    0.0000 N   0  0  0  0  0  0  0  0  0  0  0  0
    2.8958   -1.2031    0.0000 C   0  0  0  0  0  0  0  0  0  0  0  0
    3.5899   -1.6491    0.0000 C   0  0  0  0  0  0  0  0  0  0  0  0
    4.3231   -1.2710    0.0000 C   0  0  0  0  0  0  0  0  0  0  0  0
    4.3623   -0.4469    0.0000 C   0  0  0  0  0  0  0  0  0  0  0  0
    3.6683   -0.0009    0.0000 C   0  0  0  0  0  0  0  0  0  0  0  0
    2.9350   -0.3790    0.0000 C   0  0  0  0  0  0  0  0  0  0  0  0
  1  2  1  0  0  0  0
  3  2  1  1  0  0  0
  3  4  1  0  0  0  0
  4  5  1  0  0  0  0
  5  6  1  0  0  0  0
  6  7  1  0  0  0  0
  7  8  1  0  0  0  0
  8  9  1  0  0  0  0
  9 10  1  0  0  0  0
 10 11  4  0  0  0  0
 12 11  1  6  0  0  0
  7 12  1  0  0  0  0
  3 12  1  0  0  0  0
  3 13  1  0  0  0  0
 13 14  1  0  0  0  0
 14 15  2  0  0  0  0
 14 16  1  0  0  0  0
 11 16  4  0  0  0  0
 16 17  4  0  0  0  0
 17 18  4  0  0  0  0
 18 19  4  0  0  0  0
 19 20  4  0  0  0  0
 20 21  4  0  0  0  0
 21 22  4  0  0  0  0
 10 22  4  0  0  0  0
 17 22  4  0  0  0  0
M  END

> <ChembankId>
1039

> <SMILES>
CC[C@]1(CCCN2CCc3c4[C@@H]21)CC(=O)n4c5ccccc35

> <InChI>
1/C19H22N2O/c1-2-19-9-5-10-20-11-8-14-13-6-3-4-7-15(13)21(16(22)12-19)17(14)18(19)20/h3-4,6-7,18H,2,5,8-12H2,1H3

$$$$
1043
  Marvin  11101114202D          

 29 32  0  0  0  0            999 V2000
    1.4289   -4.1250    0.0000 O   0  0  0  0  0  0  0  0  0  0  0  0
    2.1434   -3.7125    0.0000 Hg  0  0  0  0  0  0  0  0  0  0  0  0
    2.1434   -2.8875    0.0000 C   0  0  0  0  0  0  0  0  0  0  0  0
    1.4289   -2.4750    0.0000 C   0  0  0  0  0  0  0  0  0  0  0  0
    0.7145   -2.8875    0.0000 O   0  0  0  0  0  0  0  0  0  0  0  0
    1.4289   -1.6500    0.0000 C   0  0  0  0  0  0  0  0  0  0  0  0
    0.7145   -1.2375    0.0000 Br  0  0  0  0  0  0  0  0  0  0  0  0
    2.1434   -1.2375    0.0000 C   0  0  0  0  0  0  0  0  0  0  0  0
    2.8579   -1.6500    0.0000 C   0  0  0  0  0  0  0  0  0  0  0  0
    3.5724   -1.2375    0.0000 C   0  0  0  0  0  0  0  0  0  0  0  0
    3.5724   -0.4125    0.0000 C   0  0  0  0  0  0  0  0  0  0  0  0
    2.8579    0.0000    0.0000 C   0  0  0  0  0  0  0  0  0  0  0  0
    2.8579    0.8250    0.0000 C   0  0  0  0  0  0  0  0  0  0  0  0
    3.5724    1.2375    0.0000 C   0  0  0  0  0  0  0  0  0  0  0  0
    4.2868    0.8250    0.0000 C   0  0  0  0  0  0  0  0  0  0  0  0
    4.2868    0.0000    0.0000 C   0  0  0  0  0  0  0  0  0  0  0  0
    5.0013   -0.4125    0.0000 C   0  0  0  0  0  0  0  0  0  0  0  0
    5.7158    0.0000    0.0000 O   0  0  0  0  0  0  0  0  0  0  0  0
    5.4862   -1.0799    0.0000 O   0  0  0  0  0  0  0  0  0  0  0  0
    4.2868   -1.6500    0.0000 C   0  0  0  0  0  0  0  0  0  0  0  0
    5.0013   -1.2375    0.0000 C   0  0  0  0  0  0  0  0  0  0  0  0
    5.7158   -1.6500    0.0000 C   0  0  0  0  0  0  0  0  0  0  0  0
    6.4302   -1.2375    0.0000 Br  0  0  0  0  0  0  0  0  0  0  0  0
    5.7158   -2.4750    0.0000 C   0  0  0  0  0  0  0  0  0  0  0  0
    6.4302   -2.8875    0.0000 O   0  0  0  0  0  0  0  0  0  0  0  0
    5.0013   -2.8875    0.0000 C   0  0  0  0  0  0  0  0  0  0  0  0
    4.2868   -2.4750    0.0000 C   0  0  0  0  0  0  0  0  0  0  0  0
    3.5724   -2.8875    0.0000 O   0  0  0  0  0  0  0  0  0  0  0  0
    2.8579   -2.4750    0.0000 C   0  0  0  0  0  0  0  0  0  0  0  0
  1  2  1  0  0  0  0
  2  3  1  0  0  0  0
  3  4  4  0  0  0  0
  4  5  1  0  0  0  0
  4  6  4  0  0  0  0
  6  7  1  0  0  0  0
  6  8  4  0  0  0  0
  8  9  4  0  0  0  0
  9 10  4  0  0  0  0
 10 11  1  0  0  0  0
 11 12  4  0  0  0  0
 12 13  4  0  0  0  0
 13 14  4  0  0  0  0
 14 15  4  0  0  0  0
 15 16  4  0  0  0  0
 11 16  4  0  0  0  0
 16 17  1  0  0  0  0
 17 18  2  0  0  0  0
 17 19  1  0  0  0  0
 10 20  4  0  0  0  0
 20 21  4  0  0  0  0
 21 22  4  0  0  0  0
 22 23  1  0  0  0  0
 22 24  4  0  0  0  0
 24 25  2  0  0  0  0
 24 26  4  0  0  0  0
 26 27  4  0  0  0  0
 20 27  4  0  0  0  0
 27 28  4  0  0  0  0
 28 29  4  0  0  0  0
  3 29  4  0  0  0  0
  9 29  4  0  0  0  0
M  END

> <ChembankId>
1043

> <SMILES>
O[Hg]c1c(O)c(Br)cc2c(c3ccccc3C(=O)O)c4cc(Br)c(=O)cc4oc12

> <InChI>
1/C20H9Br2O5.Hg.H2O/c21-13-5-11-17(7-15(13)23)27-18-8-16(24)14(22)6-12(18)19(11)9-3-1-2-4-10(9)20(25)26;;/h1-7,24H,(H,25,26);;1H2/q;+1;/p-1

$$$$
1046
  Marvin  11101114202D          

 31 36  0  0  1  0            999 V2000
    7.2076   -4.2801    0.0000 C   0  0  0  0  0  0  0  0  0  0  0  0
    7.3319   -3.4645    0.0000 C   0  0  0  0  0  0  0  0  0  0  0  0
    8.0648   -3.0857    0.0000 C   0  0  0  0  0  0  0  0  0  0  0  0
    7.9311   -2.2716    0.0000 C   0  0  0  0  0  0  0  0  0  0  0  0
    8.6640   -1.8929    0.0000 C   0  0  0  0  0  0  0  0  0  0  0  0
    9.2507   -2.4728    0.0000 C   0  0  0  0  0  0  0  0  0  0  0  0
   10.0743   -2.4249    0.0000 C   0  0  0  0  0  0  0  0  0  0  0  0
   10.4446   -1.6877    0.0000 C   0  0  0  0  0  0  0  0  0  0  0  0
   11.2682   -1.6397    0.0000 C   0  0  0  0  0  0  0  0  0  0  0  0
   11.7215   -2.3290    0.0000 C   0  0  1  0  0  0  0  0  0  0  0  0
   12.5451   -2.2811    0.0000 C   0  0  0  0  0  0  0  0  0  0  0  0
   12.9984   -2.9704    0.0000 C   0  0  1  0  0  0  0  0  0  0  0  0
   13.8221   -2.9224    0.0000 O   0  0  0  0  0  0  0  0  0  0  0  0
   12.6282   -3.7076    0.0000 C   0  0  0  0  0  0  0  0  0  0  0  0
   11.8046   -3.7555    0.0000 C   0  0  0  0  0  0  0  0  0  0  0  0
   11.3512   -3.0662    0.0000 C   0  0  1  0  0  0  0  0  0  0  0  0
   10.9810   -3.8035    0.0000 C   0  0  0  0  0  0  0  0  0  0  0  0
   10.5276   -3.1142    0.0000 C   0  0  0  0  0  0  0  0  0  0  0  0
   10.1573   -3.8514    0.0000 C   0  0  0  0  0  0  0  0  0  0  0  0
    9.3337   -3.8994    0.0000 C   0  0  0  0  0  0  0  0  0  0  0  0
    8.9635   -4.6366    0.0000 O   0  0  0  0  0  0  0  0  0  0  0  0
    8.8804   -3.2101    0.0000 C   0  0  2  0  0  0  0  0  0  0  0  0
    8.4351   -3.9046    0.0000 C   0  0  0  0  0  0  0  0  0  0  0  0
    7.1155   -2.1473    0.0000 O   0  0  0  0  0  0  0  0  0  0  0  0
    6.7452   -2.8845    0.0000 C   0  0  0  0  0  0  0  0  0  0  0  0
    6.4540   -3.6564    0.0000 C   0  0  0  0  0  0  0  0  0  0  0  0
    5.6399   -3.7902    0.0000 C   0  0  0  0  0  0  0  0  0  0  0  0
    5.1170   -3.1521    0.0000 C   0  0  0  0  0  0  0  0  0  0  0  0
    4.3030   -3.2858    0.0000 C   0  0  0  0  0  0  0  0  0  0  0  0
    5.4082   -2.3802    0.0000 C   0  0  0  0  0  0  0  0  0  0  0  0
    6.2223   -2.2464    0.0000 O   0  0  0  0  0  0  0  0  0  0  0  0
  1  2  1  0  0  0  0
  2  3  1  0  0  0  0
  3  4  1  0  0  0  0
  4  5  1  0  0  0  0
  5  6  1  0  0  0  0
  6  7  1  0  0  0  0
  7  8  1  0  0  0  0
  8  9  1  0  0  0  0
  9 10  1  0  0  0  0
 10 11  1  1  0  0  0
 11 12  1  0  0  0  0
 12 13  1  1  0  0  0
 12 14  1  0  0  0  0
 14 15  1  0  0  0  0
 15 16  1  0  0  0  0
 10 16  1  0  0  0  0
 16 17  1  1  0  0  0
 16 18  1  0  0  0  0
  7 18  1  0  0  0  0
 18 19  1  0  0  0  0
 19 20  1  0  0  0  0
 20 21  2  0  0  0  0
 20 22  1  0  0  0  0
  3 22  1  0  0  0  0
  6 22  1  0  0  0  0
 22 23  1  1  0  0  0
  4 24  1  0  0  0  0
 24 25  1  0  0  0  0
  2 25  1  0  0  0  0
 25 26  1  0  0  0  0
 26 27  1  0  0  0  0
 27 28  1  0  0  0  0
 28 29  1  0  0  0  0
 28 30  1  0  0  0  0
 30 31  1  0  0  0  0
 25 31  1  0  0  0  0
M  END

> <ChembankId>
1046

> <SMILES>
CC1C2C(CC3C4CC[C@H]5C[C@@H](O)CC[C@]5(C)C4CC(=O)[C@]23C)OC61CCC(C)CO6

> <InChI>
1/C27H42O4/c1-15-7-10-27(30-14-15)16(2)24-22(31-27)12-21-19-6-5-17-11-18(28)8-9-25(17,3)20(19)13-23(29)26(21,24)4/h15-22,24,28H,5-14H2,1-4H3

$$$$
1047
  Marvin  11101114202D          

 20 22  0  0  0  0            999 V2000
    2.1434    1.2375    0.0000 C   0  0  0  0  0  0  0  0  0  0  0  0
    2.8579    0.8250    0.0000 N   0  0  0  0  0  0  0  0  0  0  0  0
    2.8579    0.0000    0.0000 C   0  0  0  0  0  0  0  0  0  0  0  0
    3.5724    1.2375    0.0000 C   0  0  0  0  0  0  0  0  0  0  0  0
    4.2868    0.8250    0.0000 C   0  0  0  0  0  0  0  0  0  0  0  0
    5.0013    1.2375    0.0000 C   0  0  0  0  0  0  0  0  0  0  0  0
    5.7158    0.8250    0.0000 N   0  0  0  0  0  0  0  0  0  0  0  0
    6.4302    1.2375    0.0000 C   0  0  0  0  0  0  0  0  0  0  0  0
    6.4302    2.0625    0.0000 C   0  0  0  0  0  0  0  0  0  0  0  0
    7.1447    2.4750    0.0000 C   0  0  0  0  0  0  0  0  0  0  0  0
    7.8592    2.0625    0.0000 C   0  0  0  0  0  0  0  0  0  0  0  0
    7.8592    1.2375    0.0000 C   0  0  0  0  0  0  0  0  0  0  0  0
    7.1447    0.8250    0.0000 C   0  0  0  0  0  0  0  0  0  0  0  0
    7.1447    0.0000    0.0000 S   0  0  0  0  0  0  0  0  0  0  0  0
    6.4302   -0.4125    0.0000 C   0  0  0  0  0  0  0  0  0  0  0  0
    6.4302   -1.2375    0.0000 C   0  0  0  0  0  0  0  0  0  0  0  0
    5.7158   -1.6500    0.0000 C   0  0  0  0  0  0  0  0  0  0  0  0
    5.0013   -1.2375    0.0000 C   0  0  0  0  0  0  0  0  0  0  0  0
    5.0013   -0.4125    0.0000 C   0  0  0  0  0  0  0  0  0  0  0  0
    5.7158    0.0000    0.0000 C   0  0  0  0  0  0  0  0  0  0  0  0
  1  2  1  0  0  0  0
  2  3  1  0  0  0  0
  2  4  1  0  0  0  0
  4  5  1  0  0  0  0
  5  6  1  0  0  0  0
  6  7  1  0  0  0  0
  7  8  1  0  0  0  0
  8  9  4  0  0  0  0
  9 10  4  0  0  0  0
 10 11  4  0  0  0  0
 11 12  4  0  0  0  0
 12 13  4  0  0  0  0
  8 13  4  0  0  0  0
 13 14  1  0  0  0  0
 14 15  1  0  0  0  0
 15 16  4  0  0  0  0
 16 17  4  0  0  0  0
 17 18  4  0  0  0  0
 18 19  4  0  0  0  0
 19 20  4  0  0  0  0
  7 20  1  0  0  0  0
 15 20  4  0  0  0  0
M  END

> <ChembankId>
1047

> <SMILES>
CN(C)CCCN1c2ccccc2Sc3ccccc13

> <InChI>
1/C17H20N2S/c1-18(2)12-7-13-19-14-8-3-5-10-16(14)20-17-11-6-4-9-15(17)19/h3-6,8-11H,7,12-13H2,1-2H3

$$$$
1070
  Marvin  11101114202D          

 20 21  0  0  0  0            999 V2000
   -0.7145   -1.2375    0.0000 C   0  0  0  0  0  0  0  0  0  0  0  0
    0.0000   -1.6500    0.0000 C   0  0  0  0  0  0  0  0  0  0  0  0
    0.7145   -1.2375    0.0000 C   0  0  0  0  0  0  0  0  0  0  0  0
    1.4289   -1.6500    0.0000 C   0  0  0  0  0  0  0  0  0  0  0  0
    2.1434   -1.2375    0.0000 C   0  0  0  0  0  0  0  0  0  0  0  0
    2.8579   -1.6500    0.0000 C   0  0  0  0  0  0  0  0  0  0  0  0
    1.4289   -2.4750    0.0000 C   0  0  0  0  0  0  0  0  0  0  0  0
    2.1434   -2.8875    0.0000 C   0  0  0  0  0  0  0  0  0  0  0  0
    2.1434   -3.7125    0.0000 C   0  0  0  0  0  0  0  0  0  0  0  0
    1.4289   -4.1250    0.0000 C   0  0  0  0  0  0  0  0  0  0  0  0
    1.4289   -4.9500    0.0000 O   0  0  0  0  0  0  0  0  0  0  0  0
    0.7145   -3.7125    0.0000 C   0  0  0  0  0  0  0  0  0  0  0  0
    0.7145   -2.8875    0.0000 C   0  0  0  0  0  0  0  0  0  0  0  0
    0.7145   -0.4125    0.0000 C   0  0  0  0  0  0  0  0  0  0  0  0
    0.0000    0.0000    0.0000 C   0  0  0  0  0  0  0  0  0  0  0  0
    0.0000    0.8250    0.0000 C   0  0  0  0  0  0  0  0  0  0  0  0
    0.7145    1.2375    0.0000 C   0  0  0  0  0  0  0  0  0  0  0  0
    0.7145    2.0625    0.0000 O   0  0  0  0  0  0  0  0  0  0  0  0
    1.4289    0.8250    0.0000 C   0  0  0  0  0  0  0  0  0  0  0  0
    1.4289    0.0000    0.0000 C   0  0  0  0  0  0  0  0  0  0  0  0
  1  2  1  0  0  0  0
  2  3  1  0  0  0  0
  3  4  1  0  0  0  0
  4  5  1  0  0  0  0
  5  6  1  0  0  0  0
  4  7  1  0  0  0  0
  7  8  4  0  0  0  0
  8  9  4  0  0  0  0
  9 10  4  0  0  0  0
 10 11  1  0  0  0  0
 10 12  4  0  0  0  0
 12 13  4  0  0  0  0
  7 13  4  0  0  0  0
  3 14  1  0  0  0  0
 14 15  4  0  0  0  0
 15 16  4  0  0  0  0
 16 17  4  0  0  0  0
 17 18  1  0  0  0  0
 17 19  4  0  0  0  0
 19 20  4  0  0  0  0
 14 20  4  0  0  0  0
M  END

> <ChembankId>
1070

> <SMILES>
CCC(C(CC)c1ccc(O)cc1)c2ccc(O)cc2

> <InChI>
1/C18H22O2/c1-3-17(13-5-9-15(19)10-6-13)18(4-2)14-7-11-16(20)12-8-14/h5-12,17-20H,3-4H2,1-2H3

$$$$
2549
  Marvin  11101114202D          

 25 30  0  0  0  0            999 V2000
    8.1844   -3.1747    0.0000 C   0  0  0  0  0  0  0  0  0  0  0  0
    7.6894   -2.5147    0.0000 N   0  3  0  0  0  0  0  0  0  0  0  0
    6.8703   -2.6133    0.0000 C   0  0  0  0  0  0  0  0  0  0  0  0
    6.3754   -1.9533    0.0000 C   0  0  0  0  0  0  0  0  0  0  0  0
    5.5563   -2.0519    0.0000 C   0  0  0  0  0  0  0  0  0  0  0  0
    5.0815   -2.7266    0.0000 O   0  0  0  0  0  0  0  0  0  0  0  0
    4.2931   -2.4835    0.0000 C   0  0  0  0  0  0  0  0  0  0  0  0
    4.2807   -1.6586    0.0000 O   0  0  0  0  0  0  0  0  0  0  0  0
    5.0613   -1.3919    0.0000 C   0  0  0  0  0  0  0  0  0  0  0  0
    5.3855   -0.6332    0.0000 C   0  0  0  0  0  0  0  0  0  0  0  0
    6.2045   -0.5346    0.0000 C   0  0  0  0  0  0  0  0  0  0  0  0
    6.6995   -1.1946    0.0000 C   0  0  0  0  0  0  0  0  0  0  0  0
    7.5186   -1.0960    0.0000 C   0  0  0  0  0  0  0  0  0  0  0  0
    7.8427   -0.3373    0.0000 C   0  0  0  0  0  0  0  0  0  0  0  0
    8.6618   -0.2387    0.0000 C   0  0  0  0  0  0  0  0  0  0  0  0
    9.1567   -0.8987    0.0000 C   0  0  0  0  0  0  0  0  0  0  0  0
    9.9758   -0.8001    0.0000 C   0  0  0  0  0  0  0  0  0  0  0  0
   10.4708   -1.4601    0.0000 C   0  0  0  0  0  0  0  0  0  0  0  0
   11.2925   -1.5339    0.0000 O   0  0  0  0  0  0  0  0  0  0  0  0
   11.4762   -2.3382    0.0000 C   0  0  0  0  0  0  0  0  0  0  0  0
   10.7680   -2.7615    0.0000 O   0  0  0  0  0  0  0  0  0  0  0  0
   10.1467   -2.2188    0.0000 C   0  0  0  0  0  0  0  0  0  0  0  0
    9.3276   -2.3174    0.0000 C   0  0  0  0  0  0  0  0  0  0  0  0
    8.8326   -1.6574    0.0000 C   0  0  0  0  0  0  0  0  0  0  0  0
    8.0135   -1.7560    0.0000 C   0  0  0  0  0  0  0  0  0  0  0  0
  1  2  1  0  0  0  0
  2  3  4  0  0  0  0
  3  4  4  0  0  0  0
  4  5  4  0  0  0  0
  5  6  1  0  0  0  0
  6  7  1  0  0  0  0
  7  8  1  0  0  0  0
  8  9  1  0  0  0  0
  5  9  4  0  0  0  0
  9 10  4  0  0  0  0
 10 11  4  0  0  0  0
 11 12  4  0  0  0  0
  4 12  4  0  0  0  0
 12 13  4  0  0  0  0
 13 14  4  0  0  0  0
 14 15  4  0  0  0  0
 15 16  4  0  0  0  0
 16 17  4  0  0  0  0
 17 18  4  0  0  0  0
 18 19  1  0  0  0  0
 19 20  1  0  0  0  0
 20 21  1  0  0  0  0
 21 22  1  0  0  0  0
 18 22  4  0  0  0  0
 22 23  4  0  0  0  0
 23 24  4  0  0  0  0
 16 24  4  0  0  0  0
 24 25  4  0  0  0  0
  2 25  4  0  0  0  0
 13 25  4  0  0  0  0
M  CHG  1   2   1
M  END

> <ChembankId>
2549

> <SMILES>
C[n+]1cc2c3OCOc3ccc2c4ccc5cc6OCOc6cc5c14

> <InChI>
1/C20H14NO4/c1-21-8-15-12(4-5-16-20(15)25-10-22-16)13-3-2-11-6-17-18(24-9-23-17)7-14(11)19(13)21/h2-8H,9-10H2,1H3/q+1

$$$$
1120
  Marvin  11101114202D          

 14 14  0  0  0  0            999 V2000
    2.1434    1.2375    0.0000 O   0  0  0  0  0  0  0  0  0  0  0  0
    1.4289    0.8250    0.0000 C   0  0  0  0  0  0  0  0  0  0  0  0
    1.4289   -0.0000    0.0000 C   0  0  0  0  0  0  0  0  0  0  0  0
    0.7145   -0.4125    0.0000 C   0  0  0  0  0  0  0  0  0  0  0  0
    0.0000    0.0000    0.0000 C   0  0  0  0  0  0  0  0  0  0  0  0
    0.0000    0.8250    0.0000 C   0  0  0  0  0  0  0  0  0  0  0  0
    0.7145    1.2375    0.0000 C   0  0  0  0  0  0  0  0  0  0  0  0
    0.7145    2.0625    0.0000 N   0  3  0  0  0  0  0  0  0  0  0  0
    1.4289    2.4750    0.0000 O   0  0  0  0  0  0  0  0  0  0  0  0
    0.0000    2.4750    0.0000 O   0  5  0  0  0  0  0  0  0  0  0  0
   -0.7145   -0.4125    0.0000 As  0  0  0  0  0  0  0  0  0  0  0  0
   -1.4289   -0.8250    0.0000 O   0  0  0  0  0  0  0  0  0  0  0  0
   -1.1270    0.3020    0.0000 O   0  0  0  0  0  0  0  0  0  0  0  0
   -0.3020   -1.1270    0.0000 O   0  0  0  0  0  0  0  0  0  0  0  0
  1  2  1  0  0  0  0
  2  3  4  0  0  0  0
  3  4  4  0  0  0  0
  4  5  4  0  0  0  0
  5  6  4  0  0  0  0
  6  7  4  0  0  0  0
  2  7  4  0  0  0  0
  7  8  1  0  0  0  0
  8  9  2  0  0  0  0
  8 10  1  0  0  0  0
  5 11  1  0  0  0  0
 11 12  2  0  0  0  0
 11 13  1  0  0  0  0
 11 14  1  0  0  0  0
M  CHG  2   8   1  10  -1
M  END

> <ChembankId>
1120

> <SMILES>
Oc1ccc(cc1[N+](=O)[O-])[As](=O)(O)O

> <InChI>
1/C6H6AsNO6/c9-6-2-1-4(7(10,11)12)3-5(6)8(13)14/h1-3,9H,(H2,10,11,12)

$$$$
1000122
  Marvin  11101114202D          

 22 25  0  0  1  0            999 V2000
    2.8579    0.8250    0.0000 O   0  0  0  0  0  0  0  0  0  0  0  0
    2.8579    0.0000    0.0000 C   0  0  1  0  0  0  0  0  0  0  0  0
    3.5724   -0.4125    0.0000 C   0  0  2  0  0  0  0  0  0  0  0  0
    3.9971   -1.0644    0.0000 C   0  0  0  0  0  0  0  0  0  0  0  0
    4.8063   -1.0990    0.0000 C   0  0  2  0  0  0  0  0  0  0  0  0
    5.1038   -1.9451    0.0000 C   0  0  0  0  0  0  0  0  0  0  0  0
    4.6517   -1.4732    0.0000 C   0  0  0  0  0  0  0  0  0  0  0  0
    4.3961   -0.4569    0.0000 N   0  0  0  0  0  0  0  0  0  0  0  0
    5.0424    0.1877    0.0000 C   0  0  0  0  0  0  0  0  0  0  0  0
    5.4222   -0.4740    0.0000 C   0  0  2  0  0  0  0  0  0  0  0  0
    6.2404   -0.5797    0.0000 C   0  0  0  0  0  0  0  0  0  0  0  0
    6.7410    0.0760    0.0000 C   0  0  0  0  0  0  0  0  0  0  0  0
    2.1434   -0.4125    0.0000 C   0  0  0  0  0  0  0  0  0  0  0  0
    2.1434   -1.2375    0.0000 C   0  0  0  0  0  0  0  0  0  0  0  0
    1.4289   -1.6500    0.0000 C   0  0  0  0  0  0  0  0  0  0  0  0
    0.7145   -1.2375    0.0000 N   0  0  0  0  0  0  0  0  0  0  0  0
    0.7145   -0.4125    0.0000 C   0  0  0  0  0  0  0  0  0  0  0  0
    0.0000    0.0000    0.0000 C   0  0  0  0  0  0  0  0  0  0  0  0
    0.0000    0.8250    0.0000 C   0  0  0  0  0  0  0  0  0  0  0  0
    0.7145    1.2375    0.0000 C   0  0  0  0  0  0  0  0  0  0  0  0
    1.4289    0.8250    0.0000 C   0  0  0  0  0  0  0  0  0  0  0  0
    1.4289    0.0000    0.0000 C   0  0  0  0  0  0  0  0  0  0  0  0
  2  1  1  1  0  0  0
  3  2  1  1  0  0  0
  3  4  1  0  0  0  0
  5  4  1  1  0  0  0
  5  6  1  0  0  0  0
  6  7  1  0  0  0  0
  7  8  1  0  0  0  0
  3  8  1  0  0  0  0
  8  9  1  0  0  0  0
  9 10  1  0  0  0  0
  5 10  1  0  0  0  0
 10 11  1  6  0  0  0
 11 12  2  0  0  0  0
  2 13  1  0  0  0  0
 13 14  4  0  0  0  0
 14 15  4  0  0  0  0
 15 16  4  0  0  0  0
 16 17  4  0  0  0  0
 17 18  4  0  0  0  0
 18 19  4  0  0  0  0
 19 20  4  0  0  0  0
 20 21  4  0  0  0  0
 21 22  4  0  0  0  0
 13 22  4  0  0  0  0
 17 22  4  0  0  0  0
M  END

> <ChembankId>
1000122

> <SMILES>
O[C@@H]([C@@H]1C[C@@H]2CCN1C[C@@H]2C=C)c3ccnc4ccccc34

> <InChI>
1/C19H22N2O/c1-2-13-12-21-10-8-14(13)11-18(21)19(22)16-7-9-20-17-6-4-3-5-15(16)17/h2-7,9,13-14,18-19,22H,1,8,10-12H2

$$$$
1129
  Marvin  11101114202D          

 21 23  0  0  0  0            999 V2000
    2.1434   -2.8875    0.0000 C   0  0  0  0  0  0  0  0  0  0  0  0
    1.4289   -2.4750    0.0000 C   0  0  0  0  0  0  0  0  0  0  0  0
    1.4289   -1.6500    0.0000 N   0  0  0  0  0  0  0  0  0  0  0  0
    0.7145   -1.2375    0.0000 C   0  0  0  0  0  0  0  0  0  0  0  0
    0.7145   -0.4125    0.0000 C   0  0  0  0  0  0  0  0  0  0  0  0
    0.0000    0.0000    0.0000 C   0  0  0  0  0  0  0  0  0  0  0  0
   -0.7145   -0.4125    0.0000 O   0  0  0  0  0  0  0  0  0  0  0  0
    0.0000    0.8250    0.0000 O   0  0  0  0  0  0  0  0  0  0  0  0
    1.4289    0.0000    0.0000 C   0  0  0  0  0  0  0  0  0  0  0  0
    1.4289    0.8250    0.0000 O   0  0  0  0  0  0  0  0  0  0  0  0
    2.1434   -0.4125    0.0000 C   0  0  0  0  0  0  0  0  0  0  0  0
    2.8579    0.0000    0.0000 C   0  0  0  0  0  0  0  0  0  0  0  0
    3.5724   -0.4125    0.0000 N   0  0  0  0  0  0  0  0  0  0  0  0
    3.5724   -1.2375    0.0000 C   0  0  0  0  0  0  0  0  0  0  0  0
    2.8579   -1.6500    0.0000 N   0  0  0  0  0  0  0  0  0  0  0  0
    2.1434   -1.2375    0.0000 C   0  0  0  0  0  0  0  0  0  0  0  0
    4.2868   -1.6500    0.0000 N   0  0  0  0  0  0  0  0  0  0  0  0
    5.0405   -1.3144    0.0000 C   0  0  0  0  0  0  0  0  0  0  0  0
    5.5925   -1.9275    0.0000 C   0  0  0  0  0  0  0  0  0  0  0  0
    5.1800   -2.6420    0.0000 C   0  0  0  0  0  0  0  0  0  0  0  0
    4.3731   -2.4705    0.0000 C   0  0  0  0  0  0  0  0  0  0  0  0
  1  2  1  0  0  0  0
  2  3  1  0  0  0  0
  3  4  4  0  0  0  0
  4  5  4  0  0  0  0
  5  6  1  0  0  0  0
  6  7  2  0  0  0  0
  6  8  1  0  0  0  0
  5  9  4  0  0  0  0
  9 10  2  0  0  0  0
  9 11  4  0  0  0  0
 11 12  4  0  0  0  0
 12 13  4  0  0  0  0
 13 14  4  0  0  0  0
 14 15  4  0  0  0  0
 15 16  4  0  0  0  0
  3 16  4  0  0  0  0
 11 16  4  0  0  0  0
 14 17  1  0  0  0  0
 17 18  1  0  0  0  0
 18 19  1  0  0  0  0
 19 20  1  0  0  0  0
 20 21  1  0  0  0  0
 17 21  1  0  0  0  0
M  END

> <ChembankId>
1129

> <SMILES>
CCn1cc(C(=O)O)c(=O)c2cnc(nc12)N3CCCC3

> <InChI>
1/C14H16N4O3/c1-2-17-8-10(13(20)21)11(19)9-7-15-14(16-12(9)17)18-5-3-4-6-18/h7-8H,2-6H2,1H3,(H,20,21)

$$$$
1155
  Marvin  11101114202D          

 19 20  0  0  0  0            999 V2000
    1.4289   -2.4750    0.0000 N   0  0  0  0  0  0  0  0  0  0  0  0
    1.4289   -3.3000    0.0000 C   0  0  0  0  0  0  0  0  0  0  0  0
    2.1434   -3.7125    0.0000 C   0  0  0  0  0  0  0  0  0  0  0  0
    2.1434   -4.5375    0.0000 C   0  0  0  0  0  0  0  0  0  0  0  0
    1.4289   -4.9500    0.0000 C   0  0  0  0  0  0  0  0  0  0  0  0
    0.7145   -4.5375    0.0000 C   0  0  0  0  0  0  0  0  0  0  0  0
    0.7145   -3.7125    0.0000 C   0  0  0  0  0  0  0  0  0  0  0  0
    1.4289   -5.7750    0.0000 S   0  0  0  0  0  0  0  0  0  0  0  0
    0.6039   -5.7750    0.0000 O   0  0  0  0  0  0  0  0  0  0  0  0
    2.2539   -5.7750    0.0000 O   0  0  0  0  0  0  0  0  0  0  0  0
    1.4289   -6.6000    0.0000 N   0  0  0  0  0  0  0  0  0  0  0  0
    2.1434   -7.0125    0.0000 C   0  0  0  0  0  0  0  0  0  0  0  0
    2.8579   -6.6000    0.0000 O   0  0  0  0  0  0  0  0  0  0  0  0
    2.1434   -7.8375    0.0000 C   0  0  0  0  0  0  0  0  0  0  0  0
    2.8579   -8.2500    0.0000 C   0  0  0  0  0  0  0  0  0  0  0  0
    2.8579   -9.0750    0.0000 C   0  0  0  0  0  0  0  0  0  0  0  0
    2.1434   -9.4875    0.0000 C   0  0  0  0  0  0  0  0  0  0  0  0
    1.4289   -9.0750    0.0000 C   0  0  0  0  0  0  0  0  0  0  0  0
    1.4289   -8.2500    0.0000 C   0  0  0  0  0  0  0  0  0  0  0  0
  1  2  1  0  0  0  0
  2  3  4  0  0  0  0
  3  4  4  0  0  0  0
  4  5  4  0  0  0  0
  5  6  4  0  0  0  0
  6  7  4  0  0  0  0
  2  7  4  0  0  0  0
  5  8  1  0  0  0  0
  8  9  2  0  0  0  0
  8 10  2  0  0  0  0
  8 11  1  0  0  0  0
 11 12  1  0  0  0  0
 12 13  2  0  0  0  0
 12 14  1  0  0  0  0
 14 15  4  0  0  0  0
 15 16  4  0  0  0  0
 16 17  4  0  0  0  0
 17 18  4  0  0  0  0
 18 19  4  0  0  0  0
 14 19  4  0  0  0  0
M  END

> <ChembankId>
1155

> <SMILES>
Nc1ccc(cc1)S(=O)(=O)NC(=O)c2ccccc2

> <InChI>
1/C13H12N2O3S/c14-11-6-8-12(9-7-11)19(17,18)15-13(16)10-4-2-1-3-5-10/h1-9H,14H2,(H,15,16)

$$$$
1195
  Marvin  11101114202D          

 29 33  0  0  1  0            999 V2000
    3.5330   -3.2587    0.0000 C   0  0  0  0  0  0  0  0  0  0  0  0
    3.8928   -2.5163    0.0000 C   0  0  2  0  0  0  0  0  0  0  0  0
    4.4247   -3.1470    0.0000 C   0  0  0  0  0  0  0  0  0  0  0  0
    5.2368   -3.0018    0.0000 C   0  0  0  0  0  0  0  0  0  0  0  0
    5.5171   -2.2259    0.0000 C   0  0  0  0  0  0  0  0  0  0  0  0
    4.9853   -1.5952    0.0000 C   0  0  0  0  0  0  0  0  0  0  0  0
    5.2655   -0.8192    0.0000 C   0  0  0  0  0  0  0  0  0  0  0  0
    6.0777   -0.6740    0.0000 C   0  0  0  0  0  0  0  0  0  0  0  0
    6.6095   -1.3047    0.0000 C   0  0  2  0  0  0  0  0  0  0  0  0
    6.8898   -0.5288    0.0000 O   0  0  0  0  0  0  0  0  0  0  0  0
    7.4216   -1.1595    0.0000 C   0  0  0  0  0  0  0  0  0  0  0  0
    7.9534   -1.7902    0.0000 C   0  0  1  0  0  0  0  0  0  0  0  0
    8.7655   -1.6450    0.0000 O   0  0  0  0  0  0  0  0  0  0  0  0
    7.6731   -2.5662    0.0000 C   0  0  0  0  0  0  0  0  0  0  0  0
    6.8610   -2.7114    0.0000 C   0  0  0  0  0  0  0  0  0  0  0  0
    6.3292   -2.0807    0.0000 C   0  0  2  0  0  0  0  0  0  0  0  0
    6.0489   -2.8566    0.0000 C   0  0  0  0  0  0  0  0  0  0  0  0
    6.5807   -3.4873    0.0000 O   0  0  0  0  0  0  0  0  0  0  0  0
    4.1731   -1.7404    0.0000 C   0  0  2  0  0  0  0  0  0  0  0  0
    4.3708   -0.9394    0.0000 O   0  0  0  0  0  0  0  0  0  0  0  0
    3.5218   -1.2340    0.0000 C   0  0  0  0  0  0  0  0  0  0  0  0
    2.8390   -1.6970    0.0000 C   0  0  0  0  0  0  0  0  0  0  0  0
    3.0683   -2.4895    0.0000 C   0  0  0  0  0  0  0  0  0  0  0  0
    2.5619   -3.1408    0.0000 C   0  0  0  0  0  0  0  0  0  0  0  0
    2.7912   -3.9333    0.0000 C   0  0  0  0  0  0  0  0  0  0  0  0
    2.1084   -4.3963    0.0000 C   0  0  0  0  0  0  0  0  0  0  0  0
    2.0816   -5.2209    0.0000 O   0  0  0  0  0  0  0  0  0  0  0  0
    1.4570   -3.8899    0.0000 O   0  0  0  0  0  0  0  0  0  0  0  0
    1.7373   -3.1140    0.0000 C   0  0  0  0  0  0  0  0  0  0  0  0
  2  1  1  1  0  0  0
  2  3  1  0  0  0  0
  3  4  1  0  0  0  0
  4  5  1  0  0  0  0
  5  6  1  0  0  0  0
  6  7  1  0  0  0  0
  7  8  1  0  0  0  0
  8  9  1  0  0  0  0
  9 10  1  1  0  0  0
  9 11  1  0  0  0  0
 11 12  1  0  0  0  0
 12 13  1  1  0  0  0
 12 14  1  0  0  0  0
 14 15  1  0  0  0  0
 15 16  1  0  0  0  0
  5 16  1  0  0  0  0
  9 16  1  0  0  0  0
 16 17  1  1  0  0  0
 17 18  2  0  0  0  0
  6 19  1  0  0  0  0
  2 19  1  0  0  0  0
 19 20  1  1  0  0  0
 19 21  1  0  0  0  0
 21 22  1  0  0  0  0
 22 23  1  0  0  0  0
  2 23  1  0  0  0  0
 23 24  1  0  0  0  0
 24 25  2  0  0  0  0
 25 26  1  0  0  0  0
 26 27  2  0  0  0  0
 26 28  1  0  0  0  0
 28 29  1  0  0  0  0
 24 29  1  0  0  0  0
M  END

> <ChembankId>
1195

> <SMILES>
C[C@@]12CCC3C(CC[C@]4(O)C[C@@H](O)CC[C@]34C=O)[C@@]2(O)CCC1C5=CC(=O)OC5

> <InChI>
1/C23H32O6/c1-20-6-3-17-18(4-8-22(27)11-15(25)2-7-21(17,22)13-24)23(20,28)9-5-16(20)14-10-19(26)29-12-14/h10,13,15-18,25,27-28H,2-9,11-12H2,1H3

$$$$
1206
  Marvin  11101114202D          

 21 25  0  0  1  0            999 V2000
    4.6445    1.9109    0.0000 C   0  0  0  0  0  0  0  0  0  0  0  0
    4.0766    1.2798    0.0000 C   0  0  0  0  0  0  0  0  0  0  0  0
    4.3343    0.4724    0.0000 C   0  0  0  0  0  0  0  0  0  0  0  0
    3.2140    1.4664    0.0000 C   0  0  2  0  0  0  0  0  0  0  0  0
    2.7971    2.1979    0.0000 C   0  0  1  0  0  0  0  0  0  0  0  0
    2.1046    1.4129    0.0000 O   0  0  0  0  0  0  0  0  0  0  0  0
    2.2825    2.0030    0.0000 C   0  0  0  0  0  0  0  0  0  0  0  0
    2.6037    2.8809    0.0000 O   0  0  0  0  0  0  0  0  0  0  0  0
    2.5480    0.9801    0.0000 C   0  0  2  0  0  0  0  0  0  0  0  0
    1.6573    0.9781    0.0000 C   0  0  2  0  0  0  0  0  0  0  0  0
    1.8198    0.1150    0.0000 O   0  0  0  0  0  0  0  0  0  0  0  0
    0.9118    0.5792    0.0000 C   0  0  0  0  0  0  0  0  0  0  0  0
    0.2670    1.1315    0.0000 C   0  0  1  0  0  0  0  0  0  0  0  0
   -0.2458    1.7896    0.0000 O   0  0  0  0  0  0  0  0  0  0  0  0
    0.5896    1.9152    0.0000 C   0  0  2  0  0  0  0  0  0  0  0  0
    0.5956    2.7574    0.0000 C   0  0  0  0  0  0  0  0  0  0  0  0
   -0.0997    3.2415    0.0000 O   0  0  0  0  0  0  0  0  0  0  0  0
    1.3469    3.1441    0.0000 O   0  0  0  0  0  0  0  0  0  0  0  0
    1.9278    2.5104    0.0000 C   0  0  1  0  0  0  0  0  0  0  0  0
    1.4249    1.8061    0.0000 C   0  0  2  0  0  0  0  0  0  0  0  0
    2.4963    1.6023    0.0000 C   0  0  0  0  0  0  0  0  0  0  0  0
  1  2  1  0  0  0  0
  2  3  2  0  0  0  0
  4  2  1  1  0  0  0
  4  5  1  0  0  0  0
  5  6  1  6  0  0  0
  6  7  1  0  0  0  0
  7  8  2  0  0  0  0
  9  7  1  6  0  0  0
  4  9  1  0  0  0  0
  9 10  1  0  0  0  0
 10 11  1  1  0  0  0
 10 12  1  0  0  0  0
 13 12  1  1  0  0  0
 13 14  1  0  0  0  0
 15 14  1  1  0  0  0
 13 15  1  0  0  0  0
 15 16  1  0  0  0  0
 16 17  2  0  0  0  0
 16 18  1  0  0  0  0
 19 18  1  6  0  0  0
  5 19  1  0  0  0  0
 19 20  1  0  0  0  0
 15 20  1  0  0  0  0
 10 20  1  0  0  0  0
 20 21  1  1  0  0  0
M  END

> <ChembankId>
1206

> <SMILES>
CC(=C)[C@@H]1[C@H]2OC(=O)[C@@H]1[C@]3(O)C[C@H]4O[C@]45C(=O)O[C@H]2[C@@]53C

> <InChI>
1/C15H16O6/c1-5(2)7-8-11(16)19-9(7)10-13(3)14(8,18)4-6-15(13,21-6)12(17)20-10/h6-10,18H,1,4H2,2-3H3

$$$$
1216
  Marvin  11101114202D          

 21 24  0  0  1  0            999 V2000
    3.5330   -3.2587    0.0000 C   0  0  0  0  0  0  0  0  0  0  0  0
    3.8928   -2.5163    0.0000 C   0  0  2  0  0  0  0  0  0  0  0  0
    4.4247   -3.1470    0.0000 C   0  0  0  0  0  0  0  0  0  0  0  0
    5.2368   -3.0018    0.0000 C   0  0  0  0  0  0  0  0  0  0  0  0
    5.5171   -2.2259    0.0000 C   0  0  0  0  0  0  0  0  0  0  0  0
    4.9853   -1.5952    0.0000 C   0  0  0  0  0  0  0  0  0  0  0  0
    5.2655   -0.8192    0.0000 C   0  0  0  0  0  0  0  0  0  0  0  0
    6.0777   -0.6740    0.0000 C   0  0  0  0  0  0  0  0  0  0  0  0
    6.6095   -1.3047    0.0000 C   0  0  0  0  0  0  0  0  0  0  0  0
    7.4216   -1.1595    0.0000 C   0  0  0  0  0  0  0  0  0  0  0  0
    7.9534   -1.7902    0.0000 C   0  0  0  0  0  0  0  0  0  0  0  0
    8.7655   -1.6450    0.0000 O   0  0  0  0  0  0  0  0  0  0  0  0
    7.6731   -2.5662    0.0000 C   0  0  0  0  0  0  0  0  0  0  0  0
    6.8610   -2.7114    0.0000 C   0  0  0  0  0  0  0  0  0  0  0  0
    6.3292   -2.0807    0.0000 C   0  0  0  0  0  0  0  0  0  0  0  0
    4.1731   -1.7404    0.0000 C   0  0  0  0  0  0  0  0  0  0  0  0
    3.5218   -1.2340    0.0000 C   0  0  0  0  0  0  0  0  0  0  0  0
    2.8390   -1.6970    0.0000 C   0  0  1  0  0  0  0  0  0  0  0  0
    2.0630   -1.4167    0.0000 O   0  0  0  0  0  0  0  0  0  0  0  0
    3.0683   -2.4895    0.0000 C   0  0  2  0  0  0  0  0  0  0  0  0
    2.5619   -3.1408    0.0000 O   0  0  0  0  0  0  0  0  0  0  0  0
  2  1  1  1  0  0  0
  2  3  1  0  0  0  0
  3  4  1  0  0  0  0
  4  5  1  0  0  0  0
  5  6  1  0  0  0  0
  6  7  1  0  0  0  0
  7  8  1  0  0  0  0
  8  9  1  0  0  0  0
  9 10  4  0  0  0  0
 10 11  4  0  0  0  0
 11 12  1  0  0  0  0
 11 13  4  0  0  0  0
 13 14  4  0  0  0  0
 14 15  4  0  0  0  0
  5 15  1  0  0  0  0
  9 15  4  0  0  0  0
  6 16  1  0  0  0  0
  2 16  1  0  0  0  0
 16 17  1  0  0  0  0
 17 18  1  0  0  0  0
 18 19  1  6  0  0  0
 18 20  1  0  0  0  0
  2 20  1  0  0  0  0
 20 21  1  1  0  0  0
M  END

> <ChembankId>
1216

> <SMILES>
C[C@@]12CCC3C(CCc4cc(O)ccc34)C2C[C@@H](O)[C@@H]1O

> <InChI>
1/C18H24O3/c1-18-7-6-13-12-5-3-11(19)8-10(12)2-4-14(13)15(18)9-16(20)17(18)21/h3,5,8,13-17,19-21H,2,4,6-7,9H2,1H3

$$$$
1220
  Marvin  11101114202D          

 27 32  0  0  1  0            999 V2000
    3.2872   -1.7326    0.0000 C   0  0  0  0  0  0  0  0  0  0  0  0
    2.5026   -1.4777    0.0000 N   0  0  0  0  0  0  0  0  0  0  0  0
    1.8895   -2.0297    0.0000 C   0  0  0  0  0  0  0  0  0  0  0  0
    1.1048   -1.7748    0.0000 C   0  0  0  0  0  0  0  0  0  0  0  0
    0.9333   -0.9678    0.0000 C   0  0  0  0  0  0  0  0  0  0  0  0
    0.1487   -0.7129    0.0000 C   0  0  0  0  0  0  0  0  0  0  0  0
   -0.0228    0.0941    0.0000 C   0  0  0  0  0  0  0  0  0  0  0  0
   -0.7373    0.5066    0.0000 O   0  0  0  0  0  0  0  0  0  0  0  0
   -0.5658    1.3136    0.0000 C   0  0  0  0  0  0  0  0  0  0  0  0
    0.2547    1.3998    0.0000 O   0  0  0  0  0  0  0  0  0  0  0  0
    0.5903    0.6461    0.0000 C   0  0  0  0  0  0  0  0  0  0  0  0
    1.3749    0.3912    0.0000 C   0  0  0  0  0  0  0  0  0  0  0  0
    1.5464   -0.4158    0.0000 C   0  0  0  0  0  0  0  0  0  0  0  0
    2.3310   -0.6707    0.0000 C   0  0  0  0  0  0  0  0  0  0  0  0
    2.9441   -0.1187    0.0000 C   0  0  2  0  0  0  0  0  0  0  0  0
    2.8579    0.7018    0.0000 O   0  0  0  0  0  0  0  0  0  0  0  0
    3.6116    1.0373    0.0000 C   0  0  0  0  0  0  0  0  0  0  0  0
    3.7831    1.8443    0.0000 O   0  0  0  0  0  0  0  0  0  0  0  0
    4.1636    0.4243    0.0000 C   0  0  0  0  0  0  0  0  0  0  0  0
    4.9886    0.4243    0.0000 C   0  0  0  0  0  0  0  0  0  0  0  0
    5.5406    1.0373    0.0000 O   0  0  0  0  0  0  0  0  0  0  0  0
    6.2943    0.7018    0.0000 C   0  0  0  0  0  0  0  0  0  0  0  0
    6.2081   -0.1187    0.0000 O   0  0  0  0  0  0  0  0  0  0  0  0
    5.4011   -0.2902    0.0000 C   0  0  0  0  0  0  0  0  0  0  0  0
    4.9886   -1.0047    0.0000 C   0  0  0  0  0  0  0  0  0  0  0  0
    4.1636   -1.0047    0.0000 C   0  0  0  0  0  0  0  0  0  0  0  0
    3.7511   -0.2902    0.0000 C   0  0  0  0  0  0  0  0  0  0  0  0
  1  2  1  0  0  0  0
  2  3  1  0  0  0  0
  3  4  1  0  0  0  0
  4  5  1  0  0  0  0
  5  6  4  0  0  0  0
  6  7  4  0  0  0  0
  7  8  1  0  0  0  0
  8  9  1  0  0  0  0
  9 10  1  0  0  0  0
 10 11  1  0  0  0  0
  7 11  4  0  0  0  0
 11 12  4  0  0  0  0
 12 13  4  0  0  0  0
  5 13  4  0  0  0  0
 13 14  1  0  0  0  0
  2 14  1  0  0  0  0
 15 14  1  6  0  0  0
 15 16  1  0  0  0  0
 16 17  1  0  0  0  0
 17 18  2  0  0  0  0
 17 19  1  0  0  0  0
 19 20  4  0  0  0  0
 20 21  1  0  0  0  0
 21 22  1  0  0  0  0
 22 23  1  0  0  0  0
 23 24  1  0  0  0  0
 20 24  4  0  0  0  0
 24 25  4  0  0  0  0
 25 26  4  0  0  0  0
 26 27  4  0  0  0  0
 15 27  1  0  0  0  0
 19 27  4  0  0  0  0
M  END

> <ChembankId>
1220

> <SMILES>
CN1CCc2cc3OCOc3cc2[C@H]1[C@@H]4OC(=O)c5c6OCOc6ccc45

> <InChI>
1/C20H17NO6/c1-21-5-4-10-6-14-15(25-8-24-14)7-12(10)17(21)18-11-2-3-13-19(26-9-23-13)16(11)20(22)27-18/h2-3,6-7,17-18H,4-5,8-9H2,1H3

$$$$
1232
  Marvin  11101114202D          

 12 12  0  0  0  0            999 V2000
    2.1434    1.2375    0.0000 O   0  0  0  0  0  0  0  0  0  0  0  0
    1.4289    0.8250    0.0000 C   0  0  0  0  0  0  0  0  0  0  0  0
    1.4289   -0.0000    0.0000 C   0  0  0  0  0  0  0  0  0  0  0  0
    2.1434   -0.4125    0.0000 O   0  0  0  0  0  0  0  0  0  0  0  0
    0.7145   -0.4125    0.0000 C   0  0  0  0  0  0  0  0  0  0  0  0
    0.7145   -1.2375    0.0000 O   0  0  0  0  0  0  0  0  0  0  0  0
    0.0000    0.0000    0.0000 C   0  0  0  0  0  0  0  0  0  0  0  0
    0.0000    0.8250    0.0000 C   0  0  0  0  0  0  0  0  0  0  0  0
   -0.7145    1.2375    0.0000 O   0  0  0  0  0  0  0  0  0  0  0  0
    0.7145    1.2375    0.0000 C   0  0  0  0  0  0  0  0  0  0  0  0
    0.7145    2.0625    0.0000 O   0  0  0  0  0  0  0  0  0  0  0  0
   -0.7145   -0.4125    0.0000 O   0  0  0  0  0  0  0  0  0  0  0  0
  1  2  1  0  0  0  0
  2  3  2  0  0  0  0
  3  4  1  0  0  0  0
  3  5  1  0  0  0  0
  5  6  2  0  0  0  0
  5  7  1  0  0  0  0
  7  8  2  0  0  0  0
  8  9  1  0  0  0  0
  8 10  1  0  0  0  0
  2 10  1  0  0  0  0
 10 11  2  0  0  0  0
  7 12  1  0  0  0  0
M  END

> <ChembankId>
1232

> <SMILES>
OC1=C(O)C(=O)C(=C(O)C1=O)O

> <InChI>
1/C6H4O6/c7-1-2(8)4(10)6(12)5(11)3(1)9/h7-8,11-12H

$$$$
1239
  Marvin  11101114202D          

 17 20  0  0  1  0            999 V2000
    2.4555   -2.2453    0.0000 C   0  0  0  0  0  0  0  0  0  0  0  0
    1.9782   -2.9182    0.0000 C   0  0  0  0  0  0  0  0  0  0  0  0
    1.1568   -2.8412    0.0000 C   0  0  0  0  0  0  0  0  0  0  0  0
    0.8127   -2.0914    0.0000 N   0  0  0  0  0  0  0  0  0  0  0  0
    1.6290   -1.9119    0.0000 C   0  0  0  0  0  0  0  0  0  0  0  0
    1.5820   -0.9250    0.0000 C   0  0  1  0  0  0  0  0  0  0  0  0
    1.7132   -0.1214    0.0000 C   0  0  0  0  0  0  0  0  0  0  0  0
    1.1634   -0.5574    0.0000 C   0  0  2  0  0  0  0  0  0  0  0  0
    0.2444   -0.5581    0.0000 C   0  0  0  0  0  0  0  0  0  0  0  0
    0.1175   -1.3600    0.0000 N   0  0  0  0  0  0  0  0  0  0  0  0
   -0.6581   -1.0787    0.0000 C   0  0  0  0  0  0  0  0  0  0  0  0
   -0.8022   -0.2664    0.0000 C   0  0  0  0  0  0  0  0  0  0  0  0
   -0.1709    0.2646    0.0000 C   0  0  0  0  0  0  0  0  0  0  0  0
    0.6047   -0.0167    0.0000 C   0  0  0  0  0  0  0  0  0  0  0  0
    0.7489   -0.8290    0.0000 C   0  0  2  0  0  0  0  0  0  0  0  0
    1.2900   -1.4185    0.0000 C   0  0  2  0  0  0  0  0  0  0  0  0
    2.1115   -1.4955    0.0000 C   0  0  0  0  0  0  0  0  0  0  0  0
  1  2  1  0  0  0  0
  2  3  1  0  0  0  0
  3  4  1  0  0  0  0
  4  5  1  0  0  0  0
  5  6  1  0  0  0  0
  6  7  1  6  0  0  0
  8  7  1  1  0  0  0
  8  9  1  0  0  0  0
  9 10  1  0  0  0  0
 10 11  1  0  0  0  0
 11 12  1  0  0  0  0
 12 13  1  0  0  0  0
 13 14  1  0  0  0  0
 14 15  1  0  0  0  0
  6 15  1  0  0  0  0
 15 10  1  6  0  0  0
  8 16  1  0  0  0  0
 16  4  1  6  0  0  0
 16 17  1  0  0  0  0
  1 17  1  0  0  0  0
M  END

> <ChembankId>
1239

> <SMILES>
C1CCN2C[C@H]3C[C@H](CN4CCCC[C@H]34)[C@@H]2C1

> <InChI>
1/C15H26N2/c1-3-7-16-11-13-9-12(14(16)5-1)10-17-8-4-2-6-15(13)17/h12-15H,1-11H2/t12-,13-,14+,15+/m0/s1

$$$$
1242
  Marvin  11101114202D          

 21 22  0  0  0  0            999 V2000
    0.0000    0.0000    0.0000 C   0  0  0  0  0  0  0  0  0  0  0  0
    0.7145   -0.4125    0.0000 N   0  0  0  0  0  0  0  0  0  0  0  0
    1.4289   -0.0000    0.0000 C   0  0  0  0  0  0  0  0  0  0  0  0
    1.4289    0.8250    0.0000 S   0  0  0  0  0  0  0  0  0  0  0  0
    1.4289    1.6500    0.0000 O   0  0  0  0  0  0  0  0  0  0  0  0
    0.6039    0.8250    0.0000 O   0  0  0  0  0  0  0  0  0  0  0  0
    2.2539    0.8250    0.0000 O   0  0  0  0  0  0  0  0  0  0  0  0
    0.7145   -1.2375    0.0000 C   0  0  0  0  0  0  0  0  0  0  0  0
    1.3819   -1.7224    0.0000 C   0  0  0  0  0  0  0  0  0  0  0  0
    2.1665   -1.4675    0.0000 C   0  0  0  0  0  0  0  0  0  0  0  0
    1.1270   -2.5070    0.0000 N   0  0  0  0  0  0  0  0  0  0  0  0
    1.6119   -3.1745    0.0000 C   0  0  0  0  0  0  0  0  0  0  0  0
    0.3020   -2.5070    0.0000 N   0  0  0  0  0  0  0  0  0  0  0  0
   -0.1830   -3.1745    0.0000 C   0  0  0  0  0  0  0  0  0  0  0  0
    0.1526   -3.9282    0.0000 C   0  0  0  0  0  0  0  0  0  0  0  0
   -0.3323   -4.5956    0.0000 C   0  0  0  0  0  0  0  0  0  0  0  0
   -1.1528   -4.5094    0.0000 C   0  0  0  0  0  0  0  0  0  0  0  0
   -1.4884   -3.7557    0.0000 C   0  0  0  0  0  0  0  0  0  0  0  0
   -1.0034   -3.0882    0.0000 C   0  0  0  0  0  0  0  0  0  0  0  0
    0.0470   -1.7224    0.0000 C   0  0  0  0  0  0  0  0  0  0  0  0
   -0.7376   -1.4675    0.0000 O   0  0  0  0  0  0  0  0  0  0  0  0
  1  2  1  0  0  0  0
  2  3  1  0  0  0  0
  3  4  1  0  0  0  0
  4  5  2  0  0  0  0
  4  6  2  0  0  0  0
  4  7  1  0  0  0  0
  2  8  1  0  0  0  0
  8  9  4  0  0  0  0
  9 10  1  0  0  0  0
  9 11  4  0  0  0  0
 11 12  1  0  0  0  0
 11 13  4  0  0  0  0
 13 14  1  0  0  0  0
 14 15  4  0  0  0  0
 15 16  4  0  0  0  0
 16 17  4  0  0  0  0
 17 18  4  0  0  0  0
 18 19  4  0  0  0  0
 14 19  4  0  0  0  0
 13 20  4  0  0  0  0
  8 20  4  0  0  0  0
 20 21  2  0  0  0  0
M  END

> <ChembankId>
1242

> <SMILES>
CN(CS(=O)(=O)O)c1c(C)n(C)n(c2ccccc2)c1=O

> <InChI>
1/C13H17N3O4S/c1-10-12(14(2)9-21(18,19)20)13(17)16(15(10)3)11-7-5-4-6-8-11/h4-8H,9H2,1-3H3,(H,18,19,20)

$$$$
1246
  Marvin  11101114202D          

 26 28  0  0  0  0            999 V2000
   -1.9249    0.2803    0.0000 C   0  0  0  0  0  0  0  0  0  0  0  0
   -1.6427   -0.4950    0.0000 C   0  0  0  0  0  0  0  0  0  0  0  0
   -2.1730   -1.1270    0.0000 N   0  3  0  0  0  0  0  0  0  0  0  0
   -2.7033   -0.4950    0.0000 C   0  0  0  0  0  0  0  0  0  0  0  0
   -1.4586   -1.5395    0.0000 C   0  0  0  0  0  0  0  0  0  0  0  0
   -1.4586   -2.3645    0.0000 C   0  0  0  0  0  0  0  0  0  0  0  0
   -2.1730   -2.7770    0.0000 C   0  0  0  0  0  0  0  0  0  0  0  0
   -2.8875   -2.3645    0.0000 C   0  0  0  0  0  0  0  0  0  0  0  0
   -2.8875   -1.5395    0.0000 C   0  0  0  0  0  0  0  0  0  0  0  0
   -3.6020   -2.7770    0.0000 O   0  0  0  0  0  0  0  0  0  0  0  0
   -3.6020   -3.6020    0.0000 C   0  0  0  0  0  0  0  0  0  0  0  0
   -2.8875   -4.0145    0.0000 O   0  0  0  0  0  0  0  0  0  0  0  0
   -4.3164   -4.0145    0.0000 C   0  0  0  0  0  0  0  0  0  0  0  0
   -4.7289   -3.3000    0.0000 O   0  0  0  0  0  0  0  0  0  0  0  0
   -5.0309   -4.4270    0.0000 C   0  0  0  0  0  0  0  0  0  0  0  0
   -5.0309   -5.2520    0.0000 C   0  0  0  0  0  0  0  0  0  0  0  0
   -5.7454   -5.6645    0.0000 C   0  0  0  0  0  0  0  0  0  0  0  0
   -6.4599   -5.2520    0.0000 C   0  0  0  0  0  0  0  0  0  0  0  0
   -6.4599   -4.4270    0.0000 C   0  0  0  0  0  0  0  0  0  0  0  0
   -5.7454   -4.0145    0.0000 C   0  0  0  0  0  0  0  0  0  0  0  0
   -3.9039   -4.7289    0.0000 C   0  0  0  0  0  0  0  0  0  0  0  0
   -3.0789   -4.7289    0.0000 C   0  0  0  0  0  0  0  0  0  0  0  0
   -2.6664   -5.4434    0.0000 C   0  0  0  0  0  0  0  0  0  0  0  0
   -3.0789   -6.1579    0.0000 C   0  0  0  0  0  0  0  0  0  0  0  0
   -3.9039   -6.1579    0.0000 C   0  0  0  0  0  0  0  0  0  0  0  0
   -4.3164   -5.4434    0.0000 C   0  0  0  0  0  0  0  0  0  0  0  0
  1  2  1  0  0  0  0
  2  3  1  0  0  0  0
  3  4  1  0  0  0  0
  3  5  1  0  0  0  0
  5  6  1  0  0  0  0
  6  7  1  0  0  0  0
  7  8  1  0  0  0  0
  8  9  1  0  0  0  0
  3  9  1  0  0  0  0
  8 10  1  0  0  0  0
 10 11  1  0  0  0  0
 11 12  2  0  0  0  0
 11 13  1  0  0  0  0
 13 14  1  0  0  0  0
 13 15  1  0  0  0  0
 15 16  4  0  0  0  0
 16 17  4  0  0  0  0
 17 18  4  0  0  0  0
 18 19  4  0  0  0  0
 19 20  4  0  0  0  0
 15 20  4  0  0  0  0
 13 21  1  0  0  0  0
 21 22  4  0  0  0  0
 22 23  4  0  0  0  0
 23 24  4  0  0  0  0
 24 25  4  0  0  0  0
 25 26  4  0  0  0  0
 21 26  4  0  0  0  0
M  CHG  1   3   1
M  END

> <ChembankId>
1246

> <SMILES>
CC[N+]1(C)CCCC(C1)OC(=O)C(O)(c2ccccc2)c3ccccc3

> <InChI>
1/C22H28NO3/c1-3-23(2)16-10-15-20(17-23)26-21(24)22(25,18-11-6-4-7-12-18)19-13-8-5-9-14-19/h4-9,11-14,20,25H,3,10,15-17H2,1-2H3/q+1

$$$$
1254
  Marvin  11101114202D          

 21 23  0  0  1  0            999 V2000
    0.0000    0.0000    0.0000 O   0  0  0  0  0  0  0  0  0  0  0  0
    0.7145   -0.4125    0.0000 C   0  0  1  0  0  0  0  0  0  0  0  0
    1.4289    0.0000    0.0000 C   0  0  0  0  0  0  0  0  0  0  0  0
    2.1434   -0.4125    0.0000 C   0  0  0  0  0  0  0  0  0  0  0  0
    2.8579    0.0000    0.0000 C   0  0  0  0  0  0  0  0  0  0  0  0
    2.8579    0.8250    0.0000 O   0  0  0  0  0  0  0  0  0  0  0  0
    3.5724   -0.4125    0.0000 C   0  0  0  0  0  0  0  0  0  0  0  0
    3.5724   -1.2375    0.0000 C   0  0  0  0  0  0  0  0  0  0  0  0
    4.2868   -1.6500    0.0000 O   0  0  0  0  0  0  0  0  0  0  0  0
    2.8579   -1.6500    0.0000 C   0  0  0  0  0  0  0  0  0  0  0  0
    2.1434   -1.2375    0.0000 C   0  0  0  0  0  0  0  0  0  0  0  0
    1.4289   -1.6500    0.0000 O   0  0  0  0  0  0  0  0  0  0  0  0
    0.7145   -1.2375    0.0000 C   0  0  2  0  0  0  0  0  0  0  0  0
    0.0000   -1.6500    0.0000 C   0  0  0  0  0  0  0  0  0  0  0  0
    0.0000   -2.4750    0.0000 C   0  0  0  0  0  0  0  0  0  0  0  0
   -0.7145   -2.8875    0.0000 C   0  0  0  0  0  0  0  0  0  0  0  0
   -1.4289   -2.4750    0.0000 C   0  0  0  0  0  0  0  0  0  0  0  0
   -2.1434   -2.8875    0.0000 O   0  0  0  0  0  0  0  0  0  0  0  0
   -1.4289   -1.6500    0.0000 C   0  0  0  0  0  0  0  0  0  0  0  0
   -2.1434   -1.2375    0.0000 O   0  0  0  0  0  0  0  0  0  0  0  0
   -0.7145   -1.2375    0.0000 C   0  0  0  0  0  0  0  0  0  0  0  0
  2  1  1  1  0  0  0
  2  3  1  0  0  0  0
  3  4  1  0  0  0  0
  4  5  4  0  0  0  0
  5  6  1  0  0  0  0
  5  7  4  0  0  0  0
  7  8  4  0  0  0  0
  8  9  1  0  0  0  0
  8 10  4  0  0  0  0
 10 11  4  0  0  0  0
  4 11  4  0  0  0  0
 11 12  1  0  0  0  0
 12 13  1  0  0  0  0
  2 13  1  0  0  0  0
 13 14  1  6  0  0  0
 14 15  4  0  0  0  0
 15 16  4  0  0  0  0
 16 17  4  0  0  0  0
 17 18  1  0  0  0  0
 17 19  4  0  0  0  0
 19 20  1  0  0  0  0
 19 21  4  0  0  0  0
 14 21  4  0  0  0  0
M  END

> <ChembankId>
1254

> <SMILES>
O[C@H]1Cc2c(O)cc(O)cc2O[C@@H]1c3ccc(O)c(O)c3

> <InChI>
1/C15H14O6/c16-8-4-11(18)9-6-13(20)15(21-14(9)5-8)7-1-2-10(17)12(19)3-7/h1-5,13,15-20H,6H2

$$$$
1258
  Marvin  11101114202D          

 22 24  0  0  0  0            999 V2000
    2.1434   -2.8875    0.0000 C   0  0  0  0  0  0  0  0  0  0  0  0
    1.4289   -2.4750    0.0000 C   0  0  0  0  0  0  0  0  0  0  0  0
    1.4289   -1.6500    0.0000 N   0  0  0  0  0  0  0  0  0  0  0  0
    0.7145   -1.2375    0.0000 C   0  0  0  0  0  0  0  0  0  0  0  0
    0.7145   -0.4125    0.0000 C   0  0  0  0  0  0  0  0  0  0  0  0
    0.0000    0.0000    0.0000 C   0  0  0  0  0  0  0  0  0  0  0  0
   -0.7145   -0.4125    0.0000 O   0  0  0  0  0  0  0  0  0  0  0  0
    0.0000    0.8250    0.0000 O   0  0  0  0  0  0  0  0  0  0  0  0
    1.4289    0.0000    0.0000 C   0  0  0  0  0  0  0  0  0  0  0  0
    1.4289    0.8250    0.0000 O   0  0  0  0  0  0  0  0  0  0  0  0
    2.1434   -0.4125    0.0000 C   0  0  0  0  0  0  0  0  0  0  0  0
    2.8579    0.0000    0.0000 C   0  0  0  0  0  0  0  0  0  0  0  0
    3.5724   -0.4125    0.0000 N   0  0  0  0  0  0  0  0  0  0  0  0
    3.5724   -1.2375    0.0000 C   0  0  0  0  0  0  0  0  0  0  0  0
    2.8579   -1.6500    0.0000 N   0  0  0  0  0  0  0  0  0  0  0  0
    2.1434   -1.2375    0.0000 C   0  0  0  0  0  0  0  0  0  0  0  0
    4.2868   -1.6500    0.0000 N   0  0  0  0  0  0  0  0  0  0  0  0
    5.0013   -1.2375    0.0000 C   0  0  0  0  0  0  0  0  0  0  0  0
    5.7158   -1.6500    0.0000 C   0  0  0  0  0  0  0  0  0  0  0  0
    5.7158   -2.4750    0.0000 N   0  0  0  0  0  0  0  0  0  0  0  0
    5.0013   -2.8875    0.0000 C   0  0  0  0  0  0  0  0  0  0  0  0
    4.2868   -2.4750    0.0000 C   0  0  0  0  0  0  0  0  0  0  0  0
  1  2  1  0  0  0  0
  2  3  1  0  0  0  0
  3  4  4  0  0  0  0
  4  5  4  0  0  0  0
  5  6  1  0  0  0  0
  6  7  2  0  0  0  0
  6  8  1  0  0  0  0
  5  9  4  0  0  0  0
  9 10  2  0  0  0  0
  9 11  4  0  0  0  0
 11 12  4  0  0  0  0
 12 13  4  0  0  0  0
 13 14  4  0  0  0  0
 14 15  4  0  0  0  0
 15 16  4  0  0  0  0
  3 16  4  0  0  0  0
 11 16  4  0  0  0  0
 14 17  1  0  0  0  0
 17 18  1  0  0  0  0
 18 19  1  0  0  0  0
 19 20  1  0  0  0  0
 20 21  1  0  0  0  0
 21 22  1  0  0  0  0
 17 22  1  0  0  0  0
M  END

> <ChembankId>
1258

> <SMILES>
CCn1cc(C(=O)O)c(=O)c2cnc(nc12)N3CCNCC3

> <InChI>
1/C14H17N5O3/c1-2-18-8-10(13(21)22)11(20)9-7-16-14(17-12(9)18)19-5-3-15-4-6-19/h7-8,15H,2-6H2,1H3,(H,21,22)

$$$$
1269
  Marvin  11101114202D          

 21 20  0  0  1  0            999 V2000
    0.3146    5.3524    0.0000 C   0  0  0  0  0  0  0  0  0  0  0  0
    0.8547    4.7288    0.0000 C   0  0  0  0  0  0  0  0  0  0  0  0
    0.5847    3.9493    0.0000 O   0  0  0  0  0  0  0  0  0  0  0  0
    1.6649    4.8847    0.0000 N   0  0  0  0  0  0  0  0  0  0  0  0
    2.2050    4.2611    0.0000 C   0  0  1  0  0  0  0  0  0  0  0  0
    1.9349    3.4815    0.0000 C   0  0  0  0  0  0  0  0  0  0  0  0
    2.4750    2.8579    0.0000 C   0  0  0  0  0  0  0  0  0  0  0  0
    3.2851    3.0138    0.0000 O   0  0  0  0  0  0  0  0  0  0  0  0
    2.2050    2.0783    0.0000 O   0  0  0  0  0  0  0  0  0  0  0  0
    3.0151    4.4170    0.0000 C   0  0  0  0  0  0  0  0  0  0  0  0
    3.2851    5.1965    0.0000 O   0  0  0  0  0  0  0  0  0  0  0  0
    3.5552    3.7933    0.0000 N   0  0  0  0  0  0  0  0  0  0  0  0
    4.3653    3.9493    0.0000 C   0  0  1  0  0  0  0  0  0  0  0  0
    4.9054    3.3256    0.0000 C   0  0  0  0  0  0  0  0  0  0  0  0
    5.7155    3.4815    0.0000 C   0  0  0  0  0  0  0  0  0  0  0  0
    6.2556    2.8579    0.0000 C   0  0  0  0  0  0  0  0  0  0  0  0
    7.0658    3.0138    0.0000 O   0  0  0  0  0  0  0  0  0  0  0  0
    5.9856    2.0783    0.0000 O   0  0  0  0  0  0  0  0  0  0  0  0
    4.6354    4.7288    0.0000 C   0  0  0  0  0  0  0  0  0  0  0  0
    5.4455    4.8847    0.0000 O   0  0  0  0  0  0  0  0  0  0  0  0
    4.0953    5.3524    0.0000 O   0  0  0  0  0  0  0  0  0  0  0  0
  1  2  1  0  0  0  0
  2  3  2  0  0  0  0
  2  4  1  0  0  0  0
  5  4  1  6  0  0  0
  5  6  1  0  0  0  0
  6  7  1  0  0  0  0
  7  8  2  0  0  0  0
  7  9  1  0  0  0  0
  5 10  1  0  0  0  0
 10 11  2  0  0  0  0
 10 12  1  0  0  0  0
 13 12  1  6  0  0  0
 13 14  1  0  0  0  0
 14 15  1  0  0  0  0
 15 16  1  0  0  0  0
 16 17  2  0  0  0  0
 16 18  1  0  0  0  0
 13 19  1  0  0  0  0
 19 20  2  0  0  0  0
 19 21  1  0  0  0  0
M  END

> <ChembankId>
1269

> <SMILES>
CC(=O)N[C@@H](CC(=O)O)C(=O)N[C@@H](CCC(=O)O)C(=O)O

> <InChI>
1/C11H16N2O8/c1-5(14)12-7(4-9(17)18)10(19)13-6(11(20)21)2-3-8(15)16/h6-7H,2-4H2,1H3,(H,12,14)(H,13,19)(H,15,16)(H,17,18)(H,20,21)

$$$$
1277
  Marvin  11101114202D          

 69 77  0  0  1  0            999 V2000
    9.4481    2.5452    0.0000 C   0  0  0  0  0  0  0  0  0  0  0  0
    8.6360    2.4000    0.0000 C   0  0  1  0  0  0  0  0  0  0  0  0
    8.3557    1.6241    0.0000 O   0  0  0  0  0  0  0  0  0  0  0  0
    7.5435    1.4789    0.0000 C   0  0  2  0  0  0  0  0  0  0  0  0
    7.0117    2.1096    0.0000 C   0  0  0  0  0  0  0  0  0  0  0  0
    7.2920    2.8855    0.0000 C   0  0  2  0  0  0  0  0  0  0  0  0
    6.7602    3.5162    0.0000 O   0  0  0  0  0  0  0  0  0  0  0  0
    8.1041    3.0307    0.0000 C   0  0  2  0  0  0  0  0  0  0  0  0
    8.3844    3.8066    0.0000 O   0  0  0  0  0  0  0  0  0  0  0  0
    7.8526    4.4373    0.0000 C   0  0  1  0  0  0  0  0  0  0  0  0
    7.0405    4.2921    0.0000 C   0  0  0  0  0  0  0  0  0  0  0  0
    6.5087    4.9228    0.0000 C   0  0  2  0  0  0  0  0  0  0  0  0
    5.6966    4.7776    0.0000 O   0  0  0  0  0  0  0  0  0  0  0  0
    6.7890    5.6987    0.0000 C   0  0  2  0  0  0  0  0  0  0  0  0
    6.2572    6.3295    0.0000 O   0  0  0  0  0  0  0  0  0  0  0  0
    6.5375    7.1054    0.0000 C   0  0  1  0  0  0  0  0  0  0  0  0
    6.0056    7.7361    0.0000 C   0  0  0  0  0  0  0  0  0  0  0  0
    6.2859    8.5120    0.0000 C   0  0  2  0  0  0  0  0  0  0  0  0
    5.7541    9.1427    0.0000 O   0  0  0  0  0  0  0  0  0  0  0  0
    4.9420    8.9975    0.0000 C   0  0  0  0  0  0  0  0  0  0  0  0
    4.6617    8.2216    0.0000 O   0  0  0  0  0  0  0  0  0  0  0  0
    4.4102    9.6282    0.0000 C   0  0  0  0  0  0  0  0  0  0  0  0
    7.0981    8.6572    0.0000 C   0  0  2  0  0  0  0  0  0  0  0  0
    7.3784    9.4332    0.0000 O   0  0  0  0  0  0  0  0  0  0  0  0
    8.1905    9.5784    0.0000 C   0  0  2  0  0  0  0  0  0  0  0  0
    8.7223    8.9477    0.0000 O   0  0  0  0  0  0  0  0  0  0  0  0
    9.5344    9.0929    0.0000 C   0  0  2  0  0  0  0  0  0  0  0  0
   10.0662    8.4622    0.0000 C   0  0  0  0  0  0  0  0  0  0  0  0
   10.8784    8.6074    0.0000 O   0  0  0  0  0  0  0  0  0  0  0  0
    9.8147    9.8688    0.0000 C   0  0  1  0  0  0  0  0  0  0  0  0
   10.6268   10.0140    0.0000 O   0  0  0  0  0  0  0  0  0  0  0  0
    9.2829   10.4995    0.0000 C   0  0  2  0  0  0  0  0  0  0  0  0
    9.5632   11.2754    0.0000 O   0  0  0  0  0  0  0  0  0  0  0  0
    8.4708   10.3543    0.0000 C   0  0  1  0  0  0  0  0  0  0  0  0
    7.9390   10.9850    0.0000 O   0  0  0  0  0  0  0  0  0  0  0  0
    7.6299    8.0265    0.0000 C   0  0  1  0  0  0  0  0  0  0  0  0
    8.4420    8.1717    0.0000 C   0  0  0  0  0  0  0  0  0  0  0  0
    7.3496    7.2506    0.0000 O   0  0  0  0  0  0  0  0  0  0  0  0
    7.6011    5.8440    0.0000 C   0  0  1  0  0  0  0  0  0  0  0  0
    7.8814    6.6199    0.0000 C   0  0  0  0  0  0  0  0  0  0  0  0
    8.1329    5.2133    0.0000 O   0  0  0  0  0  0  0  0  0  0  0  0
    7.2632    0.7029    0.0000 O   0  0  0  0  0  0  0  0  0  0  0  0
    6.4511    0.5577    0.0000 C   0  0  1  0  0  0  0  0  0  0  0  0
    6.1708   -0.2182    0.0000 C   0  0  0  0  0  0  0  0  0  0  0  0
    5.3587   -0.3634    0.0000 C   0  0  0  0  0  0  0  0  0  0  0  0
    4.8269    0.2673    0.0000 C   0  0  1  0  0  0  0  0  0  0  0  0
    4.5466   -0.5086    0.0000 C   0  0  0  0  0  0  0  0  0  0  0  0
    5.1072    1.0432    0.0000 C   0  0  0  0  0  0  0  0  0  0  0  0
    4.5754    1.6739    0.0000 C   0  0  0  0  0  0  0  0  0  0  0  0
    3.7633    1.5287    0.0000 C   0  0  0  0  0  0  0  0  0  0  0  0
    3.4830    0.7528    0.0000 C   0  0  0  0  0  0  0  0  0  0  0  0
    4.0148    0.1221    0.0000 C   0  0  0  0  0  0  0  0  0  0  0  0
    3.7345   -0.6539    0.0000 C   0  0  0  0  0  0  0  0  0  0  0  0
    2.9224   -0.7991    0.0000 C   0  0  1  0  0  0  0  0  0  0  0  0
    2.6421   -1.5750    0.0000 O   0  0  0  0  0  0  0  0  0  0  0  0
    2.3905   -0.1684    0.0000 C   0  0  2  0  0  0  0  0  0  0  0  0
    2.0307   -0.9107    0.0000 C   0  0  0  0  0  0  0  0  0  0  0  0
    1.5660   -0.1416    0.0000 C   0  0  2  0  0  0  0  0  0  0  0  0
    1.3367    0.6509    0.0000 C   0  0  0  0  0  0  0  0  0  0  0  0
    2.0195    1.1139    0.0000 C   0  0  0  0  0  0  0  0  0  0  0  0
    2.6708    0.6076    0.0000 C   0  0  2  0  0  0  0  0  0  0  0  0
    2.8685    1.4085    0.0000 O   0  0  0  0  0  0  0  0  0  0  0  0
    1.0596   -0.7929    0.0000 C   0  0  0  0  0  0  0  0  0  0  0  0
    1.2889   -1.5854    0.0000 C   0  0  0  0  0  0  0  0  0  0  0  0
    0.6061   -2.0484    0.0000 C   0  0  0  0  0  0  0  0  0  0  0  0
    0.5793   -2.8729    0.0000 O   0  0  0  0  0  0  0  0  0  0  0  0
   -0.0452   -1.5420    0.0000 O   0  0  0  0  0  0  0  0  0  0  0  0
    0.2351   -0.7661    0.0000 C   0  0  0  0  0  0  0  0  0  0  0  0
    5.9193    1.1884    0.0000 C   0  0  0  0  0  0  0  0  0  0  0  0
  2  1  1  1  0  0  0
  2  3  1  0  0  0  0
  3  4  1  0  0  0  0
  4  5  1  0  0  0  0
  5  6  1  0  0  0  0
  6  7  1  6  0  0  0
  6  8  1  0  0  0  0
  2  8  1  0  0  0  0
  8  9  1  6  0  0  0
 10  9  1  1  0  0  0
 10 11  1  0  0  0  0
 11 12  1  0  0  0  0
 12 13  1  6  0  0  0
 12 14  1  0  0  0  0
 14 15  1  6  0  0  0
 16 15  1  1  0  0  0
 16 17  1  0  0  0  0
 17 18  1  0  0  0  0
 18 19  1  6  0  0  0
 19 20  1  0  0  0  0
 20 21  2  0  0  0  0
 20 22  1  0  0  0  0
 18 23  1  0  0  0  0
 23 24  1  6  0  0  0
 25 24  1  1  0  0  0
 25 26  1  0  0  0  0
 26 27  1  0  0  0  0
 27 28  1  1  0  0  0
 28 29  1  0  0  0  0
 27 30  1  0  0  0  0
 30 31  1  6  0  0  0
 30 32  1  0  0  0  0
 32 33  1  1  0  0  0
 32 34  1  0  0  0  0
 25 34  1  0  0  0  0
 34 35  1  6  0  0  0
 23 36  1  0  0  0  0
 36 37  1  1  0  0  0
 36 38  1  0  0  0  0
 16 38  1  0  0  0  0
 14 39  1  0  0  0  0
 39 40  1  1  0  0  0
 39 41  1  0  0  0  0
 10 41  1  0  0  0  0
  4 42  1  1  0  0  0
 43 42  1  1  0  0  0
 43 44  1  0  0  0  0
 44 45  1  0  0  0  0
 45 46  1  0  0  0  0
 46 47  1  1  0  0  0
 46 48  1  0  0  0  0
 48 49  1  0  0  0  0
 49 50  1  0  0  0  0
 50 51  1  0  0  0  0
 51 52  1  0  0  0  0
 46 52  1  0  0  0  0
 52 53  1  0  0  0  0
 53 54  1  0  0  0  0
 54 55  1  1  0  0  0
 54 56  1  0  0  0  0
 56 57  1  1  0  0  0
 56 58  1  0  0  0  0
 58 59  1  0  0  0  0
 59 60  1  0  0  0  0
 60 61  1  0  0  0  0
 51 61  1  0  0  0  0
 56 61  1  0  0  0  0
 61 62  1  1  0  0  0
 58 63  1  1  0  0  0
 63 64  2  0  0  0  0
 64 65  1  0  0  0  0
 65 66  2  0  0  0  0
 65 67  1  0  0  0  0
 67 68  1  0  0  0  0
 63 68  1  0  0  0  0
 48 69  1  0  0  0  0
 43 69  1  0  0  0  0
M  END

> <ChembankId>
1277

> <SMILES>
C[C@H]1O[C@H](C[C@H](O)[C@@H]1O[C@H]2C[C@H](O)[C@H](O[C@H]3C[C@H](OC(=O)C)[C@H](O[C@@H]4O[C@H](CO)[C@@H](O)[C@H](O)[C@H]4O)[C@@H](C)O3)[C@@H](C)O2)O[C@H]5CC[C@@]6(C)C(CCC7C6C[C@@H](O)[C@]8(C)[C@H](CC[C@]78O)C9=CC(=O)OC9)C5

> <InChI>
1/C49H76O20/c1-21-43(67-38-17-32(53)44(22(2)62-38)68-39-18-33(64-24(4)51)45(23(3)63-39)69-46-42(58)41(57)40(56)34(19-50)66-46)31(52)16-37(61-21)65-27-9-11-47(5)26(14-27)7-8-29-30(47)15-35(54)48(6)28(10-12-49(29,48)59)25-13-36(55)60-20-25/h13,21-23,26-35,37-46,50,52-54,56-59H,7-12,14-20H2,1-6H3

$$$$
1286
  Marvin  11101114202D          

 31 32  0  0  0  0            999 V2000
   -4.0143   -6.1578    0.0000 C   0  0  0  0  0  0  0  0  0  0  0  0
   -4.1702   -5.3476    0.0000 C   0  0  0  0  0  0  0  0  0  0  0  0
   -4.9498   -5.0776    0.0000 C   0  0  0  0  0  0  0  0  0  0  0  0
   -5.1057   -4.2675    0.0000 C   0  0  0  0  0  0  0  0  0  0  0  0
   -4.4821   -3.7274    0.0000 C   0  0  0  0  0  0  0  0  0  0  0  0
   -3.7025   -3.9974    0.0000 C   0  0  0  0  0  0  0  0  0  0  0  0
   -3.5466   -4.8075    0.0000 C   0  0  0  0  0  0  0  0  0  0  0  0
   -2.7671   -5.0776    0.0000 O   0  0  0  0  0  0  0  0  0  0  0  0
   -2.1434   -4.5375    0.0000 C   0  0  0  0  0  0  0  0  0  0  0  0
   -1.3639   -4.8075    0.0000 C   0  0  0  0  0  0  0  0  0  0  0  0
   -0.7402   -4.2675    0.0000 O   0  0  0  0  0  0  0  0  0  0  0  0
    0.0393   -4.5375    0.0000 C   0  0  0  0  0  0  0  0  0  0  0  0
    0.6630   -3.9974    0.0000 C   0  0  0  0  0  0  0  0  0  0  0  0
    1.4425   -4.2675    0.0000 N   0  3  0  0  0  0  0  0  0  0  0  0
    1.7126   -3.4879    0.0000 C   0  0  0  0  0  0  0  0  0  0  0  0
    1.1725   -5.0470    0.0000 C   0  0  0  0  0  0  0  0  0  0  0  0
    2.2221   -4.5375    0.0000 C   0  0  0  0  0  0  0  0  0  0  0  0
    2.8457   -3.9974    0.0000 C   0  0  0  0  0  0  0  0  0  0  0  0
    2.6898   -3.1873    0.0000 C   0  0  0  0  0  0  0  0  0  0  0  0
    3.3134   -2.6472    0.0000 C   0  0  0  0  0  0  0  0  0  0  0  0
    4.0930   -2.9172    0.0000 C   0  0  0  0  0  0  0  0  0  0  0  0
    4.2489   -3.7274    0.0000 C   0  0  0  0  0  0  0  0  0  0  0  0
    3.6253   -4.2675    0.0000 C   0  0  0  0  0  0  0  0  0  0  0  0
   -5.8853   -3.9974    0.0000 C   0  0  0  0  0  0  0  0  0  0  0  0
   -5.6152   -3.2179    0.0000 C   0  0  0  0  0  0  0  0  0  0  0  0
   -6.1553   -4.7770    0.0000 C   0  0  0  0  0  0  0  0  0  0  0  0
   -6.6648   -3.7274    0.0000 C   0  0  0  0  0  0  0  0  0  0  0  0
   -7.2885   -4.2675    0.0000 C   0  0  0  0  0  0  0  0  0  0  0  0
   -7.9121   -4.8075    0.0000 C   0  0  0  0  0  0  0  0  0  0  0  0
   -7.8285   -3.6438    0.0000 C   0  0  0  0  0  0  0  0  0  0  0  0
   -6.7484   -4.8911    0.0000 C   0  0  0  0  0  0  0  0  0  0  0  0
  1  2  1  0  0  0  0
  2  3  4  0  0  0  0
  3  4  4  0  0  0  0
  4  5  4  0  0  0  0
  5  6  4  0  0  0  0
  6  7  4  0  0  0  0
  2  7  4  0  0  0  0
  7  8  1  0  0  0  0
  8  9  1  0  0  0  0
  9 10  1  0  0  0  0
 10 11  1  0  0  0  0
 11 12  1  0  0  0  0
 12 13  1  0  0  0  0
 13 14  1  0  0  0  0
 14 15  1  0  0  0  0
 14 16  1  0  0  0  0
 14 17  1  0  0  0  0
 17 18  1  0  0  0  0
 18 19  4  0  0  0  0
 19 20  4  0  0  0  0
 20 21  4  0  0  0  0
 21 22  4  0  0  0  0
 22 23  4  0  0  0  0
 18 23  4  0  0  0  0
  4 24  1  0  0  0  0
 24 25  1  0  0  0  0
 24 26  1  0  0  0  0
 24 27  1  0  0  0  0
 27 28  1  0  0  0  0
 28 29  1  0  0  0  0
 28 30  1  0  0  0  0
 28 31  1  0  0  0  0
M  CHG  1  14   1
M  END

> <ChembankId>
1286

> <SMILES>
Cc1cc(ccc1OCCOCC[N+](C)(C)Cc2ccccc2)C(C)(C)CC(C)(C)C

> <InChI>
1/C28H44NO2/c1-23-20-25(28(5,6)22-27(2,3)4)14-15-26(23)31-19-18-30-17-16-29(7,8)21-24-12-10-9-11-13-24/h9-15,20H,16-19,21-22H2,1-8H3/q+1

$$$$
1311
  Marvin  11101114202D          

 21 24  0  0  1  0            999 V2000
    3.5330   -3.2587    0.0000 C   0  0  0  0  0  0  0  0  0  0  0  0
    3.8928   -2.5163    0.0000 C   0  0  2  0  0  0  0  0  0  0  0  0
    4.4247   -3.1470    0.0000 C   0  0  0  0  0  0  0  0  0  0  0  0
    5.2368   -3.0018    0.0000 C   0  0  0  0  0  0  0  0  0  0  0  0
    5.5171   -2.2259    0.0000 C   0  0  0  0  0  0  0  0  0  0  0  0
    4.9853   -1.5952    0.0000 C   0  0  0  0  0  0  0  0  0  0  0  0
    5.2655   -0.8192    0.0000 C   0  0  0  0  0  0  0  0  0  0  0  0
    6.0777   -0.6740    0.0000 C   0  0  0  0  0  0  0  0  0  0  0  0
    6.6095   -1.3047    0.0000 C   0  0  2  0  0  0  0  0  0  0  0  0
    7.4216   -1.1595    0.0000 C   0  0  0  0  0  0  0  0  0  0  0  0
    7.9534   -1.7902    0.0000 C   0  0  2  0  0  0  0  0  0  0  0  0
    8.7655   -1.6450    0.0000 O   0  0  0  0  0  0  0  0  0  0  0  0
    7.6731   -2.5662    0.0000 C   0  0  0  0  0  0  0  0  0  0  0  0
    6.8610   -2.7114    0.0000 C   0  0  0  0  0  0  0  0  0  0  0  0
    6.3292   -2.0807    0.0000 C   0  0  2  0  0  0  0  0  0  0  0  0
    6.0489   -2.8566    0.0000 C   0  0  0  0  0  0  0  0  0  0  0  0
    4.1731   -1.7404    0.0000 C   0  0  0  0  0  0  0  0  0  0  0  0
    3.5218   -1.2340    0.0000 C   0  0  0  0  0  0  0  0  0  0  0  0
    2.8390   -1.6970    0.0000 C   0  0  0  0  0  0  0  0  0  0  0  0
    3.0683   -2.4895    0.0000 C   0  0  0  0  0  0  0  0  0  0  0  0
    2.5619   -3.1408    0.0000 O   0  0  0  0  0  0  0  0  0  0  0  0
  2  1  1  1  0  0  0
  2  3  1  0  0  0  0
  3  4  1  0  0  0  0
  4  5  1  0  0  0  0
  5  6  1  0  0  0  0
  6  7  1  0  0  0  0
  7  8  1  0  0  0  0
  8  9  1  0  0  0  0
  9 10  1  6  0  0  0
 10 11  1  0  0  0  0
 11 12  1  6  0  0  0
 11 13  1  0  0  0  0
 13 14  1  0  0  0  0
 14 15  1  0  0  0  0
  9 15  1  0  0  0  0
  5 15  1  0  0  0  0
 15 16  1  1  0  0  0
  6 17  1  0  0  0  0
  2 17  1  0  0  0  0
 17 18  1  0  0  0  0
 18 19  1  0  0  0  0
 19 20  1  0  0  0  0
  2 20  1  0  0  0  0
 20 21  2  0  0  0  0
M  END

> <ChembankId>
1311

> <SMILES>
C[C@@]12CCC3C(CC[C@@H]4C[C@H](O)CC[C@@]43C)C2CCC1=O

> <InChI>
1/C19H30O2/c1-18-9-7-13(20)11-12(18)3-4-14-15-5-6-17(21)19(15,2)10-8-16(14)18/h12-16,20H,3-11H2,1-2H3/t12-,13-,14-,15+,16-,18-,19-/m0/s1

$$$$
1322
  Marvin  11101114202D          

 14 15  0  0  0  0            999 V2000
   -0.7145   -0.4125    0.0000 C   0  0  0  0  0  0  0  0  0  0  0  0
    0.0000    0.0000    0.0000 O   0  0  0  0  0  0  0  0  0  0  0  0
    0.7145   -0.4125    0.0000 C   0  0  0  0  0  0  0  0  0  0  0  0
    1.4289    0.0000    0.0000 C   0  0  0  0  0  0  0  0  0  0  0  0
    2.1434   -0.4125    0.0000 C   0  0  0  0  0  0  0  0  0  0  0  0
    2.8579    0.0000    0.0000 C   0  0  0  0  0  0  0  0  0  0  0  0
    3.5724   -0.4125    0.0000 C   0  0  0  0  0  0  0  0  0  0  0  0
    3.5724   -1.2375    0.0000 C   0  0  0  0  0  0  0  0  0  0  0  0
    4.2868   -1.6500    0.0000 O   0  0  0  0  0  0  0  0  0  0  0  0
    2.8579   -1.6500    0.0000 O   0  0  0  0  0  0  0  0  0  0  0  0
    2.1434   -1.2375    0.0000 C   0  0  0  0  0  0  0  0  0  0  0  0
    1.4289   -1.6500    0.0000 C   0  0  0  0  0  0  0  0  0  0  0  0
    0.7145   -1.2375    0.0000 C   0  0  0  0  0  0  0  0  0  0  0  0
    0.0000   -1.6500    0.0000 O   0  0  0  0  0  0  0  0  0  0  0  0
  1  2  1  0  0  0  0
  2  3  1  0  0  0  0
  3  4  4  0  0  0  0
  4  5  4  0  0  0  0
  5  6  4  0  0  0  0
  6  7  4  0  0  0  0
  7  8  4  0  0  0  0
  8  9  2  0  0  0  0
  8 10  4  0  0  0  0
 10 11  4  0  0  0  0
  5 11  4  0  0  0  0
 11 12  4  0  0  0  0
 12 13  4  0  0  0  0
  3 13  4  0  0  0  0
 13 14  1  0  0  0  0
M  END

> <ChembankId>
1322

> <SMILES>
COc1cc2ccc(=O)oc2cc1O

> <InChI>
1/C10H8O4/c1-13-9-4-6-2-3-10(12)14-8(6)5-7(9)11/h2-5,11H,1H3

$$$$
1324
  Marvin  11101114202D          

 36 35  0  0  0  0            999 V2000
   13.4211    8.5737    0.0000 C   0  0  0  0  0  0  0  0  0  0  0  0
   14.1355    8.9862    0.0000 C   0  0  0  0  0  0  0  0  0  0  0  0
   14.8500    8.5737    0.0000 C   0  0  0  0  0  0  0  0  0  0  0  0
   15.5645    8.9862    0.0000 C   0  0  0  0  0  0  0  0  0  0  0  0
   16.2789    8.5737    0.0000 C   0  0  0  0  0  0  0  0  0  0  0  0
   16.2789    7.7487    0.0000 C   0  0  0  0  0  0  0  0  0  0  0  0
   16.9934    7.3362    0.0000 C   0  0  0  0  0  0  0  0  0  0  0  0
   16.9934    8.9862    0.0000 C   0  0  0  0  0  0  0  0  0  0  0  0
   17.7079    8.5737    0.0000 N   0  0  0  0  0  0  0  0  0  0  0  0
   18.4224    8.9862    0.0000 C   0  0  0  0  0  0  0  0  0  0  0  0
   18.4224    9.8112    0.0000 N   0  0  0  0  0  0  0  0  0  0  0  0
   19.1368    8.5737    0.0000 N   0  0  0  0  0  0  0  0  0  0  0  0
   19.8513    8.9862    0.0000 C   0  0  0  0  0  0  0  0  0  0  0  0
   19.8513    9.8112    0.0000 N   0  0  0  0  0  0  0  0  0  0  0  0
   20.5658    8.5737    0.0000 N   0  0  0  0  0  0  0  0  0  0  0  0
   21.2802    8.9862    0.0000 C   0  0  0  0  0  0  0  0  0  0  0  0
   21.9947    8.5737    0.0000 C   0  0  0  0  0  0  0  0  0  0  0  0
   22.7092    8.9862    0.0000 C   0  0  0  0  0  0  0  0  0  0  0  0
   23.4237    8.5737    0.0000 C   0  0  0  0  0  0  0  0  0  0  0  0
   24.1381    8.9862    0.0000 C   0  0  0  0  0  0  0  0  0  0  0  0
   24.8526    8.5737    0.0000 C   0  0  0  0  0  0  0  0  0  0  0  0
   25.5671    8.9862    0.0000 N   0  0  0  0  0  0  0  0  0  0  0  0
   26.2815    8.5737    0.0000 C   0  0  0  0  0  0  0  0  0  0  0  0
   26.2815    7.7487    0.0000 N   0  0  0  0  0  0  0  0  0  0  0  0
   26.9960    8.9862    0.0000 N   0  0  0  0  0  0  0  0  0  0  0  0
   27.7105    8.5737    0.0000 C   0  0  0  0  0  0  0  0  0  0  0  0
   27.7105    7.7487    0.0000 N   0  0  0  0  0  0  0  0  0  0  0  0
   28.4249    8.9862    0.0000 N   0  0  0  0  0  0  0  0  0  0  0  0
   29.1394    8.5737    0.0000 C   0  0  0  0  0  0  0  0  0  0  0  0
   29.8539    8.9862    0.0000 C   0  0  0  0  0  0  0  0  0  0  0  0
   29.8539    9.8112    0.0000 C   0  0  0  0  0  0  0  0  0  0  0  0
   30.5684   10.2237    0.0000 C   0  0  0  0  0  0  0  0  0  0  0  0
   30.5684    8.5737    0.0000 C   0  0  0  0  0  0  0  0  0  0  0  0
   31.2828    8.9862    0.0000 C   0  0  0  0  0  0  0  0  0  0  0  0
   31.9973    8.5737    0.0000 C   0  0  0  0  0  0  0  0  0  0  0  0
   32.7118    8.9862    0.0000 C   0  0  0  0  0  0  0  0  0  0  0  0
  1  2  1  0  0  0  0
  2  3  1  0  0  0  0
  3  4  1  0  0  0  0
  4  5  1  0  0  0  0
  5  6  1  0  0  0  0
  6  7  1  0  0  0  0
  5  8  1  0  0  0  0
  8  9  1  0  0  0  0
  9 10  1  0  0  0  0
 10 11  2  0  0  0  0
 10 12  1  0  0  0  0
 12 13  1  0  0  0  0
 13 14  2  0  0  0  0
 13 15  1  0  0  0  0
 15 16  1  0  0  0  0
 16 17  1  0  0  0  0
 17 18  1  0  0  0  0
 18 19  1  0  0  0  0
 19 20  1  0  0  0  0
 20 21  1  0  0  0  0
 21 22  1  0  0  0  0
 22 23  1  0  0  0  0
 23 24  2  0  0  0  0
 23 25  1  0  0  0  0
 25 26  1  0  0  0  0
 26 27  2  0  0  0  0
 26 28  1  0  0  0  0
 28 29  1  0  0  0  0
 29 30  1  0  0  0  0
 30 31  1  0  0  0  0
 31 32  1  0  0  0  0
 30 33  1  0  0  0  0
 33 34  1  0  0  0  0
 34 35  1  0  0  0  0
 35 36  1  0  0  0  0
M  END

> <ChembankId>
1324

> <SMILES>
CCCCC(CC)CNC(=N)NC(=N)NCCCCCCNC(=N)NC(=N)NCC(CC)CCCC

> <InChI>
1/C26H56N10/c1-5-9-15-21(7-3)19-33-25(29)35-23(27)31-17-13-11-12-14-18-32-24(28)36-26(30)34-20-22(8-4)16-10-6-2/h21-22H,5-20H2,1-4H3,(H5,27,29,31,33,35)(H5,28,30,32,34,36)

$$$$
1335
  Marvin  11101114202D          

 18 19  0  0  0  0            999 V2000
    1.4289    0.0000    0.0000 C   0  0  0  0  0  0  0  0  0  0  0  0
    2.1434   -0.4125    0.0000 O   0  0  0  0  0  0  0  0  0  0  0  0
    2.1434   -1.2375    0.0000 C   0  0  0  0  0  0  0  0  0  0  0  0
    1.4289   -1.6500    0.0000 C   0  0  0  0  0  0  0  0  0  0  0  0
    1.4289   -2.4750    0.0000 C   0  0  0  0  0  0  0  0  0  0  0  0
    2.1434   -2.8875    0.0000 C   0  0  0  0  0  0  0  0  0  0  0  0
    2.8579   -2.4750    0.0000 C   0  0  0  0  0  0  0  0  0  0  0  0
    3.5724   -2.8875    0.0000 C   0  0  0  0  0  0  0  0  0  0  0  0
    4.2868   -2.4750    0.0000 O   0  0  0  0  0  0  0  0  0  0  0  0
    3.5724   -3.7125    0.0000 C   0  0  0  0  0  0  0  0  0  0  0  0
    4.2868   -4.1250    0.0000 C   0  0  0  0  0  0  0  0  0  0  0  0
    4.2868   -4.9500    0.0000 C   0  0  0  0  0  0  0  0  0  0  0  0
    3.5724   -5.3625    0.0000 C   0  0  0  0  0  0  0  0  0  0  0  0
    2.8579   -4.9500    0.0000 C   0  0  0  0  0  0  0  0  0  0  0  0
    2.8579   -4.1250    0.0000 C   0  0  0  0  0  0  0  0  0  0  0  0
    2.1434   -3.7125    0.0000 O   0  0  0  0  0  0  0  0  0  0  0  0
    2.8579   -1.6500    0.0000 C   0  0  0  0  0  0  0  0  0  0  0  0
    3.5724   -1.2375    0.0000 O   0  0  0  0  0  0  0  0  0  0  0  0
  1  2  1  0  0  0  0
  2  3  1  0  0  0  0
  3  4  4  0  0  0  0
  4  5  4  0  0  0  0
  5  6  4  0  0  0  0
  6  7  4  0  0  0  0
  7  8  1  0  0  0  0
  8  9  2  0  0  0  0
  8 10  1  0  0  0  0
 10 11  4  0  0  0  0
 11 12  4  0  0  0  0
 12 13  4  0  0  0  0
 13 14  4  0  0  0  0
 14 15  4  0  0  0  0
 10 15  4  0  0  0  0
 15 16  1  0  0  0  0
  7 17  4  0  0  0  0
  3 17  4  0  0  0  0
 17 18  1  0  0  0  0
M  END

> <ChembankId>
1335

> <SMILES>
COc1cccc(C(=O)c2ccccc2O)c1O

> <InChI>
1/C14H12O4/c1-18-12-8-4-6-10(14(12)17)13(16)9-5-2-3-7-11(9)15/h2-8,15,17H,1H3

$$$$
1338
  Marvin  11101114202D          

 26 27  0  0  0  0            999 V2000
    0.9788   -3.1664    0.0000 C   0  0  0  0  0  0  0  0  0  0  0  0
    1.4289   -2.4750    0.0000 C   0  0  0  0  0  0  0  0  0  0  0  0
    1.0553   -1.7395    0.0000 C   0  0  0  0  0  0  0  0  0  0  0  0
    1.5054   -1.0481    0.0000 C   0  0  0  0  0  0  0  0  0  0  0  0
    2.1968   -1.4982    0.0000 C   0  0  0  0  0  0  0  0  0  0  0  0
    2.1526   -2.3221    0.0000 O   0  0  0  0  0  0  0  0  0  0  0  0
    2.9323   -1.1246    0.0000 O   0  0  0  0  0  0  0  0  0  0  0  0
    3.6237   -1.5747    0.0000 C   0  0  0  0  0  0  0  0  0  0  0  0
    4.3592   -1.2010    0.0000 C   0  0  0  0  0  0  0  0  0  0  0  0
    5.0506   -1.6512    0.0000 N   0  0  0  0  0  0  0  0  0  0  0  0
    5.7861   -1.2775    0.0000 C   0  0  0  0  0  0  0  0  0  0  0  0
    6.4775   -1.7276    0.0000 C   0  0  0  0  0  0  0  0  0  0  0  0
    5.0064   -2.4750    0.0000 C   0  0  0  0  0  0  0  0  0  0  0  0
    4.2709   -2.8487    0.0000 C   0  0  0  0  0  0  0  0  0  0  0  0
    0.8140   -0.5980    0.0000 C   0  0  0  0  0  0  0  0  0  0  0  0
    0.0785   -0.9716    0.0000 C   0  0  0  0  0  0  0  0  0  0  0  0
   -0.6129   -0.5215    0.0000 C   0  0  0  0  0  0  0  0  0  0  0  0
   -0.5687    0.3023    0.0000 C   0  0  0  0  0  0  0  0  0  0  0  0
    0.1668    0.6760    0.0000 C   0  0  0  0  0  0  0  0  0  0  0  0
    0.8582    0.2259    0.0000 C   0  0  0  0  0  0  0  0  0  0  0  0
    1.9556   -0.3567    0.0000 C   0  0  0  0  0  0  0  0  0  0  0  0
    1.5819    0.3788    0.0000 C   0  0  0  0  0  0  0  0  0  0  0  0
    2.0320    1.0702    0.0000 C   0  0  0  0  0  0  0  0  0  0  0  0
    2.8558    1.0260    0.0000 C   0  0  0  0  0  0  0  0  0  0  0  0
    3.2295    0.2905    0.0000 C   0  0  0  0  0  0  0  0  0  0  0  0
    2.7794   -0.4009    0.0000 C   0  0  0  0  0  0  0  0  0  0  0  0
  1  2  1  0  0  0  0
  2  3  1  0  0  0  0
  3  4  1  0  0  0  0
  4  5  1  0  0  0  0
  5  6  2  0  0  0  0
  5  7  1  0  0  0  0
  7  8  1  0  0  0  0
  8  9  1  0  0  0  0
  9 10  1  0  0  0  0
 10 11  1  0  0  0  0
 11 12  1  0  0  0  0
 10 13  1  0  0  0  0
 13 14  1  0  0  0  0
  4 15  1  0  0  0  0
 15 16  4  0  0  0  0
 16 17  4  0  0  0  0
 17 18  4  0  0  0  0
 18 19  4  0  0  0  0
 19 20  4  0  0  0  0
 15 20  4  0  0  0  0
  4 21  1  0  0  0  0
 21 22  4  0  0  0  0
 22 23  4  0  0  0  0
 23 24  4  0  0  0  0
 24 25  4  0  0  0  0
 25 26  4  0  0  0  0
 21 26  4  0  0  0  0
M  END

> <ChembankId>
1338

> <SMILES>
CCCC(C(=O)OCCN(CC)CC)(c1ccccc1)c2ccccc2

> <InChI>
1/C23H31NO2/c1-4-17-23(20-13-9-7-10-14-20,21-15-11-8-12-16-21)22(25)26-19-18-24(5-2)6-3/h7-16H,4-6,17-19H2,1-3H3

$$$$
1359
  Marvin  11101114202D          

 30 35  0  0  1  0            999 V2000
    7.2076   -4.2801    0.0000 C   0  0  0  0  0  0  0  0  0  0  0  0
    7.3319   -3.4645    0.0000 C   0  0  1  0  0  0  0  0  0  0  0  0
    8.0648   -3.0857    0.0000 C   0  0  0  0  0  0  0  0  0  0  0  0
    7.9311   -2.2716    0.0000 C   0  0  0  0  0  0  0  0  0  0  0  0
    8.6640   -1.8929    0.0000 C   0  0  0  0  0  0  0  0  0  0  0  0
    9.2507   -2.4728    0.0000 C   0  0  0  0  0  0  0  0  0  0  0  0
   10.0743   -2.4249    0.0000 C   0  0  0  0  0  0  0  0  0  0  0  0
   10.4446   -1.6877    0.0000 C   0  0  0  0  0  0  0  0  0  0  0  0
   11.2682   -1.6397    0.0000 C   0  0  0  0  0  0  0  0  0  0  0  0
   11.7215   -2.3290    0.0000 C   0  0  0  0  0  0  0  0  0  0  0  0
   12.5451   -2.2811    0.0000 C   0  0  0  0  0  0  0  0  0  0  0  0
   12.9984   -2.9704    0.0000 C   0  0  0  0  0  0  0  0  0  0  0  0
   13.8221   -2.9224    0.0000 O   0  0  0  0  0  0  0  0  0  0  0  0
   12.6282   -3.7076    0.0000 C   0  0  0  0  0  0  0  0  0  0  0  0
   11.8046   -3.7555    0.0000 C   0  0  0  0  0  0  0  0  0  0  0  0
   11.3512   -3.0662    0.0000 C   0  0  0  0  0  0  0  0  0  0  0  0
   10.9810   -3.8035    0.0000 C   0  0  0  0  0  0  0  0  0  0  0  0
   10.5276   -3.1142    0.0000 C   0  0  0  0  0  0  0  0  0  0  0  0
   10.1573   -3.8514    0.0000 C   0  0  0  0  0  0  0  0  0  0  0  0
    9.3337   -3.8994    0.0000 C   0  0  0  0  0  0  0  0  0  0  0  0
    8.8804   -3.2101    0.0000 C   0  0  0  0  0  0  0  0  0  0  0  0
    8.4351   -3.9046    0.0000 C   0  0  0  0  0  0  0  0  0  0  0  0
    7.1155   -2.1473    0.0000 O   0  0  0  0  0  0  0  0  0  0  0  0
    6.7452   -2.8845    0.0000 C   0  0  2  0  0  0  0  0  0  0  0  0
    6.4540   -3.6564    0.0000 C   0  0  0  0  0  0  0  0  0  0  0  0
    5.6399   -3.7902    0.0000 C   0  0  0  0  0  0  0  0  0  0  0  0
    5.1170   -3.1521    0.0000 C   0  0  0  0  0  0  0  0  0  0  0  0
    4.3030   -3.2858    0.0000 C   0  0  0  0  0  0  0  0  0  0  0  0
    5.4082   -2.3802    0.0000 C   0  0  0  0  0  0  0  0  0  0  0  0
    6.2223   -2.2464    0.0000 N   0  0  0  0  0  0  0  0  0  0  0  0
  2  1  1  6  0  0  0
  2  3  1  0  0  0  0
  3  4  1  0  0  0  0
  4  5  1  0  0  0  0
  5  6  1  0  0  0  0
  6  7  1  0  0  0  0
  7  8  1  0  0  0  0
  8  9  1  0  0  0  0
  9 10  2  0  0  0  0
 10 11  1  0  0  0  0
 11 12  1  0  0  0  0
 12 13  1  0  0  0  0
 12 14  1  0  0  0  0
 14 15  1  0  0  0  0
 15 16  1  0  0  0  0
 10 16  1  0  0  0  0
 16 17  1  0  0  0  0
 16 18  1  0  0  0  0
  7 18  1  0  0  0  0
 18 19  1  0  0  0  0
 19 20  1  0  0  0  0
 20 21  1  0  0  0  0
  3 21  1  0  0  0  0
  6 21  1  0  0  0  0
 21 22  1  0  0  0  0
  4 23  1  0  0  0  0
 24 23  1  1  0  0  0
  2 24  1  0  0  0  0
 24 25  1  0  0  0  0
 25 26  1  0  0  0  0
 26 27  1  0  0  0  0
 27 28  1  0  0  0  0
 27 29  1  0  0  0  0
 29 30  1  0  0  0  0
 24 30  1  0  0  0  0
M  END

> <ChembankId>
1359

> <SMILES>
C[C@H]1C2C(CC3C4CC=C5CC(O)CCC5(C)C4CCC23C)O[C@@]61CCC(C)CN6

> <InChI>
1/C27H43NO2/c1-16-7-12-27(28-15-16)17(2)24-23(30-27)14-22-20-6-5-18-13-19(29)8-10-25(18,3)21(20)9-11-26(22,24)4/h5,16-17,19-24,28-29H,6-15H2,1-4H3/t16-,17-,19-,20+,21-,22+,23-,24-,25-,26-,27+/m0/s1

$$$$
1429
  Marvin  11101114202D          

 14 14  0  0  0  0            999 V2000
   -2.8579   -3.3000    0.0000 C   0  0  0  0  0  0  0  0  0  0  0  0
   -2.1434   -2.8875    0.0000 C   0  0  0  0  0  0  0  0  0  0  0  0
   -1.4289   -3.3000    0.0000 C   0  0  0  0  0  0  0  0  0  0  0  0
   -0.7145   -2.8875    0.0000 C   0  0  0  0  0  0  0  0  0  0  0  0
    0.0000   -3.3000    0.0000 O   0  0  0  0  0  0  0  0  0  0  0  0
    0.7145   -2.8875    0.0000 C   0  0  0  0  0  0  0  0  0  0  0  0
    0.7145   -2.0625    0.0000 O   0  0  0  0  0  0  0  0  0  0  0  0
    1.4289   -3.3000    0.0000 C   0  0  0  0  0  0  0  0  0  0  0  0
    2.1434   -2.8875    0.0000 C   0  0  0  0  0  0  0  0  0  0  0  0
    2.8579   -3.3000    0.0000 C   0  0  0  0  0  0  0  0  0  0  0  0
    2.8579   -4.1250    0.0000 C   0  0  0  0  0  0  0  0  0  0  0  0
    3.5724   -4.5375    0.0000 N   0  0  0  0  0  0  0  0  0  0  0  0
    2.1434   -4.5375    0.0000 C   0  0  0  0  0  0  0  0  0  0  0  0
    1.4289   -4.1250    0.0000 C   0  0  0  0  0  0  0  0  0  0  0  0
  1  2  1  0  0  0  0
  2  3  1  0  0  0  0
  3  4  1  0  0  0  0
  4  5  1  0  0  0  0
  5  6  1  0  0  0  0
  6  7  2  0  0  0  0
  6  8  1  0  0  0  0
  8  9  4  0  0  0  0
  9 10  4  0  0  0  0
 10 11  4  0  0  0  0
 11 12  1  0  0  0  0
 11 13  4  0  0  0  0
 13 14  4  0  0  0  0
  8 14  4  0  0  0  0
M  END

> <ChembankId>
1429

> <SMILES>
CCCCOC(=O)c1ccc(N)cc1

> <InChI>
1/C11H15NO2/c1-2-3-8-14-11(13)9-4-6-10(12)7-5-9/h4-7H,2-3,8,12H2,1H3

$$$$
1452
  Marvin  11101114202D          

 22 22  0  0  0  0            999 V2000
   -1.5395   -2.5046    0.0000 C   0  0  0  0  0  0  0  0  0  0  0  0
   -0.7145   -2.5046    0.0000 C   0  0  0  0  0  0  0  0  0  0  0  0
   -0.3020   -3.2191    0.0000 C   0  0  0  0  0  0  0  0  0  0  0  0
    0.5230   -3.2191    0.0000 C   0  0  0  0  0  0  0  0  0  0  0  0
    0.9355   -3.9336    0.0000 N   0  0  0  0  0  0  0  0  0  0  0  0
    0.5230   -4.6480    0.0000 C   0  0  0  0  0  0  0  0  0  0  0  0
   -0.3020   -4.6480    0.0000 C   0  0  0  0  0  0  0  0  0  0  0  0
   -0.7145   -5.3625    0.0000 C   0  0  0  0  0  0  0  0  0  0  0  0
   -1.5395   -5.3625    0.0000 C   0  0  0  0  0  0  0  0  0  0  0  0
    1.7605   -3.9336    0.0000 C   0  0  0  0  0  0  0  0  0  0  0  0
    2.1730   -4.6480    0.0000 C   0  0  0  0  0  0  0  0  0  0  0  0
    2.9980   -4.6480    0.0000 C   0  0  0  0  0  0  0  0  0  0  0  0
    3.4105   -5.3625    0.0000 O   0  0  0  0  0  0  0  0  0  0  0  0
    4.2355   -5.3625    0.0000 C   0  0  0  0  0  0  0  0  0  0  0  0
    4.6480   -4.6480    0.0000 O   0  0  0  0  0  0  0  0  0  0  0  0
    4.6480   -6.0770    0.0000 C   0  0  0  0  0  0  0  0  0  0  0  0
    5.4730   -6.0770    0.0000 C   0  0  0  0  0  0  0  0  0  0  0  0
    5.8855   -6.7914    0.0000 C   0  0  0  0  0  0  0  0  0  0  0  0
    5.4730   -7.5059    0.0000 C   0  0  0  0  0  0  0  0  0  0  0  0
    5.8855   -8.2204    0.0000 N   0  0  0  0  0  0  0  0  0  0  0  0
    4.6480   -7.5059    0.0000 C   0  0  0  0  0  0  0  0  0  0  0  0
    4.2355   -6.7914    0.0000 C   0  0  0  0  0  0  0  0  0  0  0  0
  1  2  1  0  0  0  0
  2  3  1  0  0  0  0
  3  4  1  0  0  0  0
  4  5  1  0  0  0  0
  5  6  1  0  0  0  0
  6  7  1  0  0  0  0
  7  8  1  0  0  0  0
  8  9  1  0  0  0  0
  5 10  1  0  0  0  0
 10 11  1  0  0  0  0
 11 12  1  0  0  0  0
 12 13  1  0  0  0  0
 13 14  1  0  0  0  0
 14 15  2  0  0  0  0
 14 16  1  0  0  0  0
 16 17  4  0  0  0  0
 17 18  4  0  0  0  0
 18 19  4  0  0  0  0
 19 20  1  0  0  0  0
 19 21  4  0  0  0  0
 21 22  4  0  0  0  0
 16 22  4  0  0  0  0
M  END

> <ChembankId>
1452

> <SMILES>
CCCCN(CCCC)CCCOC(=O)c1ccc(N)cc1

> <InChI>
1/C18H30N2O2/c1-3-5-12-20(13-6-4-2)14-7-15-22-18(21)16-8-10-17(19)11-9-16/h8-11H,3-7,12-15,19H2,1-2H3

$$$$
1462
  Marvin  11101114202D          

 21 22  0  0  0  0            999 V2000
    4.2868   -4.1250    0.0000 C   0  0  0  0  0  0  0  0  0  0  0  0
    3.5724   -3.7125    0.0000 C   0  0  0  0  0  0  0  0  0  0  0  0
    2.8579   -4.1250    0.0000 C   0  0  0  0  0  0  0  0  0  0  0  0
    2.1434   -3.7125    0.0000 C   0  0  0  0  0  0  0  0  0  0  0  0
    2.1434   -2.8875    0.0000 C   0  0  0  0  0  0  0  0  0  0  0  0
    2.8579   -2.4750    0.0000 C   0  0  0  0  0  0  0  0  0  0  0  0
    2.3276   -1.8430    0.0000 C   0  0  0  0  0  0  0  0  0  0  0  0
    3.3882   -1.8430    0.0000 C   0  0  0  0  0  0  0  0  0  0  0  0
    3.5724   -2.8875    0.0000 N   0  0  0  0  0  0  0  0  0  0  0  0
    4.2868   -2.4750    0.0000 C   0  0  0  0  0  0  0  0  0  0  0  0
    2.8579   -4.9500    0.0000 O   0  0  0  0  0  0  0  0  0  0  0  0
    2.1434   -5.3625    0.0000 C   0  0  0  0  0  0  0  0  0  0  0  0
    1.4289   -4.9500    0.0000 O   0  0  0  0  0  0  0  0  0  0  0  0
    2.1434   -6.1875    0.0000 C   0  0  0  0  0  0  0  0  0  0  0  0
    2.8579   -6.6000    0.0000 O   0  0  0  0  0  0  0  0  0  0  0  0
    1.4289   -6.6000    0.0000 C   0  0  0  0  0  0  0  0  0  0  0  0
    1.4289   -7.4250    0.0000 C   0  0  0  0  0  0  0  0  0  0  0  0
    0.7145   -7.8375    0.0000 C   0  0  0  0  0  0  0  0  0  0  0  0
    0.0000   -7.4250    0.0000 C   0  0  0  0  0  0  0  0  0  0  0  0
    0.0000   -6.6000    0.0000 C   0  0  0  0  0  0  0  0  0  0  0  0
    0.7145   -6.1875    0.0000 C   0  0  0  0  0  0  0  0  0  0  0  0
  1  2  1  0  0  0  0
  2  3  1  0  0  0  0
  3  4  1  0  0  0  0
  4  5  1  0  0  0  0
  5  6  1  0  0  0  0
  6  7  1  0  0  0  0
  6  8  1  0  0  0  0
  6  9  1  0  0  0  0
  2  9  1  0  0  0  0
  9 10  1  0  0  0  0
  3 11  1  0  0  0  0
 11 12  1  0  0  0  0
 12 13  2  0  0  0  0
 12 14  1  0  0  0  0
 14 15  1  0  0  0  0
 14 16  1  0  0  0  0
 16 17  4  0  0  0  0
 17 18  4  0  0  0  0
 18 19  4  0  0  0  0
 19 20  4  0  0  0  0
 20 21  4  0  0  0  0
 16 21  4  0  0  0  0
M  END

> <ChembankId>
1462

> <SMILES>
CC1C(CCC(C)(C)N1C)OC(=O)C(O)c2ccccc2

> <InChI>
1/C17H25NO3/c1-12-14(10-11-17(2,3)18(12)4)21-16(20)15(19)13-8-6-5-7-9-13/h5-9,12,14-15,19H,10-11H2,1-4H3

$$$$
1479
  Marvin  11101114202D          

 15 15  0  0  0  0            999 V2000
   -2.8579   -1.6500    0.0000 C   0  0  0  0  0  0  0  0  0  0  0  0
   -2.1434   -2.0625    0.0000 C   0  0  0  0  0  0  0  0  0  0  0  0
   -2.1434   -2.8875    0.0000 C   0  0  0  0  0  0  0  0  0  0  0  0
   -1.4289   -1.6500    0.0000 N   0  0  0  0  0  0  0  0  0  0  0  0
   -0.7145   -2.0625    0.0000 C   0  0  0  0  0  0  0  0  0  0  0  0
    0.0000   -1.6500    0.0000 C   0  0  0  0  0  0  0  0  0  0  0  0
    0.0000   -0.8250    0.0000 O   0  0  0  0  0  0  0  0  0  0  0  0
    0.7145   -2.0625    0.0000 C   0  0  0  0  0  0  0  0  0  0  0  0
    1.4289   -1.6500    0.0000 C   0  0  0  0  0  0  0  0  0  0  0  0
    2.1434   -2.0625    0.0000 C   0  0  0  0  0  0  0  0  0  0  0  0
    2.1434   -2.8875    0.0000 C   0  0  0  0  0  0  0  0  0  0  0  0
    2.8579   -3.3000    0.0000 O   0  0  0  0  0  0  0  0  0  0  0  0
    1.4289   -3.3000    0.0000 C   0  0  0  0  0  0  0  0  0  0  0  0
    1.4289   -4.1250    0.0000 O   0  0  0  0  0  0  0  0  0  0  0  0
    0.7145   -2.8875    0.0000 C   0  0  0  0  0  0  0  0  0  0  0  0
  1  2  1  0  0  0  0
  2  3  1  0  0  0  0
  2  4  1  0  0  0  0
  4  5  1  0  0  0  0
  5  6  1  0  0  0  0
  6  7  1  0  0  0  0
  6  8  1  0  0  0  0
  8  9  4  0  0  0  0
  9 10  4  0  0  0  0
 10 11  4  0  0  0  0
 11 12  1  0  0  0  0
 11 13  4  0  0  0  0
 13 14  1  0  0  0  0
 13 15  4  0  0  0  0
  8 15  4  0  0  0  0
M  END

> <ChembankId>
1479

> <SMILES>
CC(C)NCC(O)c1ccc(O)c(O)c1

> <InChI>
1/C11H17NO3/c1-7(2)12-6-11(15)8-3-4-9(13)10(14)5-8/h3-5,7,11-15H,6H2,1-2H3

$$$$
1494
  Marvin  11101114202D          

 16 18  0  0  0  0            999 V2000
   -1.4289   -1.6500    0.0000 C   0  0  0  0  0  0  0  0  0  0  0  0
   -0.7145   -1.2375    0.0000 C   0  0  0  0  0  0  0  0  0  0  0  0
    0.0000   -1.6500    0.0000 N   0  0  0  0  0  0  0  0  0  0  0  0
    0.0000   -2.4750    0.0000 C   0  0  0  0  0  0  0  0  0  0  0  0
   -0.7145   -2.8875    0.0000 C   0  0  0  0  0  0  0  0  0  0  0  0
   -1.4289   -2.4750    0.0000 N   0  0  0  0  0  0  0  0  0  0  0  0
    0.7145   -1.2375    0.0000 C   0  0  0  0  0  0  0  0  0  0  0  0
    0.7145   -0.4125    0.0000 C   0  0  0  0  0  0  0  0  0  0  0  0
    1.4289    0.0000    0.0000 C   0  0  0  0  0  0  0  0  0  0  0  0
    2.1434   -0.4125    0.0000 C   0  0  0  0  0  0  0  0  0  0  0  0
    2.8579    0.0000    0.0000 C   0  0  0  0  0  0  0  0  0  0  0  0
    3.5724   -0.4125    0.0000 C   0  0  0  0  0  0  0  0  0  0  0  0
    3.5724   -1.2375    0.0000 C   0  0  0  0  0  0  0  0  0  0  0  0
    2.8579   -1.6500    0.0000 C   0  0  0  0  0  0  0  0  0  0  0  0
    2.1434   -1.2375    0.0000 C   0  0  0  0  0  0  0  0  0  0  0  0
    1.4289   -1.6500    0.0000 N   0  0  0  0  0  0  0  0  0  0  0  0
  1  2  1  0  0  0  0
  2  3  1  0  0  0  0
  3  4  1  0  0  0  0
  4  5  1  0  0  0  0
  5  6  1  0  0  0  0
  1  6  1  0  0  0  0
  3  7  1  0  0  0  0
  7  8  4  0  0  0  0
  8  9  4  0  0  0  0
  9 10  4  0  0  0  0
 10 11  4  0  0  0  0
 11 12  4  0  0  0  0
 12 13  4  0  0  0  0
 13 14  4  0  0  0  0
 14 15  4  0  0  0  0
 10 15  4  0  0  0  0
 15 16  4  0  0  0  0
  7 16  4  0  0  0  0
M  END

> <ChembankId>
1494

> <SMILES>
C1CN(CCN1)c2ccc3ccccc3n2

> <InChI>
1/C13H15N3/c1-2-4-12-11(3-1)5-6-13(15-12)16-9-7-14-8-10-16/h1-6,14H,7-10H2

$$$$
1497
  Marvin  11101114202D          

 31 33  0  0  1  0            999 V2000
   -2.8579   -1.6500    0.0000 N   0  0  0  0  0  0  0  0  0  0  0  0
   -2.1434   -1.2375    0.0000 C   0  0  0  0  0  0  0  0  0  0  0  0
   -1.4289   -1.6500    0.0000 C   0  0  1  0  0  0  0  0  0  0  0  0
   -0.7145   -1.2375    0.0000 O   0  0  0  0  0  0  0  0  0  0  0  0
    0.0000   -1.6500    0.0000 C   0  0  2  0  0  0  0  0  0  0  0  0
    0.7145   -1.2375    0.0000 O   0  0  0  0  0  0  0  0  0  0  0  0
    0.7145   -0.4125    0.0000 C   0  0  2  0  0  0  0  0  0  0  0  0
    0.0000    0.0000    0.0000 C   0  0  1  0  0  0  0  0  0  0  0  0
   -0.7145   -0.4125    0.0000 N   0  0  0  0  0  0  0  0  0  0  0  0
    0.0000    0.8250    0.0000 C   0  0  0  0  0  0  0  0  0  0  0  0
    0.7145    1.2375    0.0000 C   0  0  1  0  0  0  0  0  0  0  0  0
    0.7145    2.0625    0.0000 N   0  0  0  0  0  0  0  0  0  0  0  0
    1.4289    0.8250    0.0000 C   0  0  2  0  0  0  0  0  0  0  0  0
    2.1434    1.2375    0.0000 O   0  0  0  0  0  0  0  0  0  0  0  0
    1.4289    0.0000    0.0000 C   0  0  0  0  0  0  0  0  0  0  0  0
    2.1434   -0.4125    0.0000 O   0  0  0  0  0  0  0  0  0  0  0  0
    2.1434   -1.2375    0.0000 C   0  0  2  0  0  0  0  0  0  0  0  0
    1.4760   -1.7224    0.0000 O   0  0  0  0  0  0  0  0  0  0  0  0
    1.7309   -2.5070    0.0000 C   0  0  2  0  0  0  0  0  0  0  0  0
    1.2460   -3.1745    0.0000 C   0  0  0  0  0  0  0  0  0  0  0  0
    0.4255   -3.0882    0.0000 O   0  0  0  0  0  0  0  0  0  0  0  0
    2.5559   -2.5070    0.0000 C   0  0  1  0  0  0  0  0  0  0  0  0
    3.0408   -3.1745    0.0000 O   0  0  0  0  0  0  0  0  0  0  0  0
    2.8109   -1.7224    0.0000 C   0  0  1  0  0  0  0  0  0  0  0  0
    3.5955   -1.4675    0.0000 O   0  0  0  0  0  0  0  0  0  0  0  0
    0.0000   -2.4750    0.0000 C   0  0  2  0  0  0  0  0  0  0  0  0
    0.7145   -2.8875    0.0000 N   0  0  0  0  0  0  0  0  0  0  0  0
   -0.7145   -2.8875    0.0000 C   0  0  1  0  0  0  0  0  0  0  0  0
   -0.7145   -3.7125    0.0000 O   0  0  0  0  0  0  0  0  0  0  0  0
   -1.4289   -2.4750    0.0000 C   0  0  2  0  0  0  0  0  0  0  0  0
   -2.1434   -2.8875    0.0000 O   0  0  0  0  0  0  0  0  0  0  0  0
  1  2  1  0  0  0  0
  3  2  1  1  0  0  0
  3  4  1  0  0  0  0
  4  5  1  0  0  0  0
  5  6  1  6  0  0  0
  7  6  1  6  0  0  0
  7  8  1  0  0  0  0
  8  9  1  1  0  0  0
  8 10  1  0  0  0  0
 10 11  1  0  0  0  0
 11 12  1  1  0  0  0
 11 13  1  0  0  0  0
 13 14  1  6  0  0  0
 13 15  1  0  0  0  0
  7 15  1  0  0  0  0
 15 16  1  0  0  0  0
 17 16  1  1  0  0  0
 17 18  1  0  0  0  0
 18 19  1  0  0  0  0
 19 20  1  1  0  0  0
 20 21  1  0  0  0  0
 19 22  1  0  0  0  0
 22 23  1  6  0  0  0
 22 24  1  0  0  0  0
 17 24  1  0  0  0  0
 24 25  1  6  0  0  0
  5 26  1  0  0  0  0
 26 27  1  6  0  0  0
 26 28  1  0  0  0  0
 28 29  1  1  0  0  0
 28 30  1  0  0  0  0
  3 30  1  0  0  0  0
 30 31  1  6  0  0  0
M  END

> <ChembankId>
1497

> <SMILES>
NC[C@H]1O[C@H](O[C@@H]2[C@@H](N)C[C@@H](N)[C@H](O)C2O[C@@H]3O[C@H](CO)[C@@H](O)[C@H]3O)[C@H](N)[C@@H](O)[C@@H]1O

> <InChI>
1/C17H34N4O10/c18-2-6-10(24)12(26)8(21)16(28-6)30-14-5(20)1-4(19)9(23)15(14)31-17-13(27)11(25)7(3-22)29-17/h4-17,22-27H,1-3,18-21H2

$$$$
1509
  Marvin  11101114202D          

 14 14  0  0  0  0            999 V2000
    2.0198    0.8843    0.0000 C   0  0  0  0  0  0  0  0  0  0  0  0
    1.2352    0.6294    0.0000 N   0  0  0  0  0  0  0  0  0  0  0  0
    0.9803   -0.1553    0.0000 C   0  0  0  0  0  0  0  0  0  0  0  0
    1.4652   -0.8227    0.0000 C   0  0  0  0  0  0  0  0  0  0  0  0
    1.1296   -1.5764    0.0000 O   0  0  0  0  0  0  0  0  0  0  0  0
    1.6145   -2.2438    0.0000 C   0  0  0  0  0  0  0  0  0  0  0  0
    1.2790   -2.9975    0.0000 O   0  0  0  0  0  0  0  0  0  0  0  0
    2.4350   -2.1576    0.0000 N   0  0  0  0  0  0  0  0  0  0  0  0
    0.1553   -0.1553    0.0000 N   0  0  0  0  0  0  0  0  0  0  0  0
   -0.0997    0.6294    0.0000 C   0  0  0  0  0  0  0  0  0  0  0  0
    0.5678    1.1143    0.0000 C   0  0  0  0  0  0  0  0  0  0  0  0
    0.5678    1.9393    0.0000 N   0  3  0  0  0  0  0  0  0  0  0  0
   -0.1467    2.3518    0.0000 O   0  0  0  0  0  0  0  0  0  0  0  0
    1.2822    2.3518    0.0000 O   0  5  0  0  0  0  0  0  0  0  0  0
  1  2  1  0  0  0  0
  2  3  4  0  0  0  0
  3  4  1  0  0  0  0
  4  5  1  0  0  0  0
  5  6  1  0  0  0  0
  6  7  2  0  0  0  0
  6  8  1  0  0  0  0
  3  9  4  0  0  0  0
  9 10  4  0  0  0  0
 10 11  4  0  0  0  0
  2 11  4  0  0  0  0
 11 12  1  0  0  0  0
 12 13  2  0  0  0  0
 12 14  1  0  0  0  0
M  CHG  2  12   1  14  -1
M  END

> <ChembankId>
1509

> <SMILES>
Cn1c(COC(=O)N)ncc1[N+](=O)[O-]

> <InChI>
1/C6H8N4O4/c1-9-4(3-14-6(7)11)8-2-5(9)10(12)13/h2H,3H2,1H3,(H2,7,11)

$$$$
1512
  Marvin  11101114202D          

 17 18  0  0  0  0            999 V2000
    2.8579   -1.6500    0.0000 C   0  0  0  0  0  0  0  0  0  0  0  0
    3.5724   -2.0625    0.0000 C   0  0  0  0  0  0  0  0  0  0  0  0
    3.5724   -2.8875    0.0000 C   0  0  0  0  0  0  0  0  0  0  0  0
    4.2868   -1.6500    0.0000 N   0  0  0  0  0  0  0  0  0  0  0  0
    5.0013   -2.0625    0.0000 C   0  0  0  0  0  0  0  0  0  0  0  0
    5.7158   -1.6500    0.0000 C   0  0  0  0  0  0  0  0  0  0  0  0
    5.7158   -0.8250    0.0000 O   0  0  0  0  0  0  0  0  0  0  0  0
    6.4302   -2.0625    0.0000 C   0  0  0  0  0  0  0  0  0  0  0  0
    7.1447   -1.6500    0.0000 C   0  0  0  0  0  0  0  0  0  0  0  0
    7.8592   -2.0625    0.0000 C   0  0  0  0  0  0  0  0  0  0  0  0
    7.8592   -2.8875    0.0000 C   0  0  0  0  0  0  0  0  0  0  0  0
    8.5737   -3.3000    0.0000 C   0  0  0  0  0  0  0  0  0  0  0  0
    8.5737   -4.1250    0.0000 C   0  0  0  0  0  0  0  0  0  0  0  0
    7.8592   -4.5375    0.0000 C   0  0  0  0  0  0  0  0  0  0  0  0
    7.1447   -4.1250    0.0000 C   0  0  0  0  0  0  0  0  0  0  0  0
    7.1447   -3.3000    0.0000 C   0  0  0  0  0  0  0  0  0  0  0  0
    6.4302   -2.8875    0.0000 C   0  0  0  0  0  0  0  0  0  0  0  0
  1  2  1  0  0  0  0
  2  3  1  0  0  0  0
  2  4  1  0  0  0  0
  4  5  1  0  0  0  0
  5  6  1  0  0  0  0
  6  7  1  0  0  0  0
  6  8  1  0  0  0  0
  8  9  4  0  0  0  0
  9 10  4  0  0  0  0
 10 11  4  0  0  0  0
 11 12  4  0  0  0  0
 12 13  4  0  0  0  0
 13 14  4  0  0  0  0
 14 15  4  0  0  0  0
 15 16  4  0  0  0  0
 11 16  4  0  0  0  0
 16 17  4  0  0  0  0
  8 17  4  0  0  0  0
M  END

> <ChembankId>
1512

> <SMILES>
CC(C)NCC(O)c1ccc2ccccc2c1

> <InChI>
1/C15H19NO/c1-11(2)16-10-15(17)14-8-7-12-5-3-4-6-13(12)9-14/h3-9,11,15-17H,10H2,1-2H3

$$$$
1517
  Marvin  11101114202D          

 16 17  0  0  0  0            999 V2000
   -0.1749   -0.6157    0.0000 C   0  0  0  0  0  0  0  0  0  0  0  0
    0.6320   -0.4441    0.0000 C   0  0  0  0  0  0  0  0  0  0  0  0
    1.1841   -1.0572    0.0000 C   0  0  0  0  0  0  0  0  0  0  0  0
    1.8515   -1.5422    0.0000 N   0  0  0  0  0  0  0  0  0  0  0  0
    1.5966   -2.3268    0.0000 C   0  0  0  0  0  0  0  0  0  0  0  0
    2.0815   -2.9942    0.0000 O   0  0  0  0  0  0  0  0  0  0  0  0
    0.7716   -2.3268    0.0000 N   0  0  0  0  0  0  0  0  0  0  0  0
    0.2866   -2.9942    0.0000 C   0  0  0  0  0  0  0  0  0  0  0  0
    0.5166   -1.5422    0.0000 C   0  0  0  0  0  0  0  0  0  0  0  0
   -0.2680   -1.2872    0.0000 O   0  0  0  0  0  0  0  0  0  0  0  0
    1.7361   -0.4441    0.0000 C   0  0  0  0  0  0  0  0  0  0  0  0
    1.4812    0.3405    0.0000 C   0  0  0  0  0  0  0  0  0  0  0  0
    2.0332    0.9536    0.0000 C   0  0  0  0  0  0  0  0  0  0  0  0
    2.8402    0.7820    0.0000 C   0  0  0  0  0  0  0  0  0  0  0  0
    3.0951   -0.0026    0.0000 C   0  0  0  0  0  0  0  0  0  0  0  0
    2.5431   -0.6157    0.0000 C   0  0  0  0  0  0  0  0  0  0  0  0
  1  2  1  0  0  0  0
  2  3  1  0  0  0  0
  3  4  1  0  0  0  0
  4  5  1  0  0  0  0
  5  6  2  0  0  0  0
  5  7  1  0  0  0  0
  7  8  1  0  0  0  0
  7  9  1  0  0  0  0
  3  9  1  0  0  0  0
  9 10  2  0  0  0  0
  3 11  1  0  0  0  0
 11 12  4  0  0  0  0
 12 13  4  0  0  0  0
 13 14  4  0  0  0  0
 14 15  4  0  0  0  0
 15 16  4  0  0  0  0
 11 16  4  0  0  0  0
M  END

> <ChembankId>
1517

> <SMILES>
CCC1(NC(=O)N(C)C1=O)c2ccccc2

> <InChI>
1/C12H14N2O2/c1-3-12(9-7-5-4-6-8-9)10(15)14(2)11(16)13-12/h4-8H,3H2,1-2H3,(H,13,16)

$$$$
1519
  Marvin  11101114202D          

  9  9  0  0  0  0            999 V2000
    1.1198    1.7274    0.0000 C   0  0  0  0  0  0  0  0  0  0  0  0
    0.5678    1.1143    0.0000 C   0  0  0  0  0  0  0  0  0  0  0  0
    0.0157    1.7274    0.0000 C   0  0  0  0  0  0  0  0  0  0  0  0
    1.2352    0.6294    0.0000 O   0  0  0  0  0  0  0  0  0  0  0  0
    0.9803   -0.1553    0.0000 C   0  0  0  0  0  0  0  0  0  0  0  0
    1.4652   -0.8227    0.0000 O   0  0  0  0  0  0  0  0  0  0  0  0
    0.1553   -0.1553    0.0000 N   0  0  0  0  0  0  0  0  0  0  0  0
   -0.0997    0.6294    0.0000 C   0  0  0  0  0  0  0  0  0  0  0  0
   -0.8843    0.8843    0.0000 O   0  0  0  0  0  0  0  0  0  0  0  0
  1  2  1  0  0  0  0
  2  3  1  0  0  0  0
  2  4  1  0  0  0  0
  4  5  1  0  0  0  0
  5  6  2  0  0  0  0
  5  7  1  0  0  0  0
  7  8  1  0  0  0  0
  2  8  1  0  0  0  0
  8  9  2  0  0  0  0
M  END

> <ChembankId>
1519

> <SMILES>
CC1(C)OC(=O)NC1=O

> <InChI>
1/C5H7NO3/c1-5(2)3(7)6-4(8)9-5/h1-2H3,(H,6,7,8)

$$$$
1524
  Marvin  11101114202D          

 18 19  0  0  0  0            999 V2000
    1.4289    0.8250    0.0000 C   0  0  0  0  0  0  0  0  0  0  0  0
    1.4289   -0.0000    0.0000 C   0  0  0  0  0  0  0  0  0  0  0  0
    2.1434   -0.4125    0.0000 C   0  0  0  0  0  0  0  0  0  0  0  0
    0.7145   -0.4125    0.0000 N   0  0  0  0  0  0  0  0  0  0  0  0
    0.7145   -1.2375    0.0000 C   0  0  0  0  0  0  0  0  0  0  0  0
    1.3819   -1.7224    0.0000 C   0  0  0  0  0  0  0  0  0  0  0  0
    2.1665   -1.4675    0.0000 C   0  0  0  0  0  0  0  0  0  0  0  0
    1.1270   -2.5070    0.0000 N   0  0  0  0  0  0  0  0  0  0  0  0
    1.6119   -3.1745    0.0000 C   0  0  0  0  0  0  0  0  0  0  0  0
    0.3020   -2.5070    0.0000 N   0  0  0  0  0  0  0  0  0  0  0  0
   -0.1830   -3.1745    0.0000 C   0  0  0  0  0  0  0  0  0  0  0  0
    0.1526   -3.9282    0.0000 C   0  0  0  0  0  0  0  0  0  0  0  0
   -0.3323   -4.5956    0.0000 C   0  0  0  0  0  0  0  0  0  0  0  0
   -1.1528   -4.5094    0.0000 C   0  0  0  0  0  0  0  0  0  0  0  0
   -1.4884   -3.7557    0.0000 C   0  0  0  0  0  0  0  0  0  0  0  0
   -1.0034   -3.0882    0.0000 C   0  0  0  0  0  0  0  0  0  0  0  0
    0.0470   -1.7224    0.0000 C   0  0  0  0  0  0  0  0  0  0  0  0
   -0.7376   -1.4675    0.0000 O   0  0  0  0  0  0  0  0  0  0  0  0
  1  2  1  0  0  0  0
  2  3  1  0  0  0  0
  2  4  1  0  0  0  0
  4  5  1  0  0  0  0
  5  6  4  0  0  0  0
  6  7  1  0  0  0  0
  6  8  4  0  0  0  0
  8  9  1  0  0  0  0
  8 10  4  0  0  0  0
 10 11  1  0  0  0  0
 11 12  4  0  0  0  0
 12 13  4  0  0  0  0
 13 14  4  0  0  0  0
 14 15  4  0  0  0  0
 15 16  4  0  0  0  0
 11 16  4  0  0  0  0
 10 17  4  0  0  0  0
  5 17  4  0  0  0  0
 17 18  2  0  0  0  0
M  END

> <ChembankId>
1524

> <SMILES>
CC(C)Nc1c(C)n(C)n(c2ccccc2)c1=O

> <InChI>
1/C14H19N3O/c1-10(2)15-13-11(3)16(4)17(14(13)18)12-8-6-5-7-9-12/h5-10,15H,1-4H3

$$$$
1530
  Marvin  11101114202D          

 16 18  0  0  0  0            999 V2000
   -0.6473   -3.1008    0.0000 C   0  0  0  0  0  0  0  0  0  0  0  0
   -0.3924   -2.3162    0.0000 O   0  0  0  0  0  0  0  0  0  0  0  0
    0.4146   -2.1447    0.0000 C   0  0  0  0  0  0  0  0  0  0  0  0
    0.6695   -1.3601    0.0000 C   0  0  0  0  0  0  0  0  0  0  0  0
    1.4765   -1.1885    0.0000 C   0  0  0  0  0  0  0  0  0  0  0  0
    2.0285   -1.8016    0.0000 C   0  0  0  0  0  0  0  0  0  0  0  0
    2.8535   -1.8016    0.0000 C   0  0  0  0  0  0  0  0  0  0  0  0
    3.4056   -1.1885    0.0000 C   0  0  0  0  0  0  0  0  0  0  0  0
    4.2125   -1.3601    0.0000 C   0  0  0  0  0  0  0  0  0  0  0  0
    4.4675   -2.1447    0.0000 N   0  0  0  0  0  0  0  0  0  0  0  0
    3.9154   -2.7578    0.0000 C   0  0  0  0  0  0  0  0  0  0  0  0
    4.1704   -3.5424    0.0000 C   0  0  0  0  0  0  0  0  0  0  0  0
    3.1085   -2.5862    0.0000 C   0  0  0  0  0  0  0  0  0  0  0  0
    2.4410   -3.0712    0.0000 N   0  0  0  0  0  0  0  0  0  0  0  0
    1.7736   -2.5862    0.0000 C   0  0  0  0  0  0  0  0  0  0  0  0
    0.9666   -2.7578    0.0000 C   0  0  0  0  0  0  0  0  0  0  0  0
  1  2  1  0  0  0  0
  2  3  1  0  0  0  0
  3  4  4  0  0  0  0
  4  5  4  0  0  0  0
  5  6  4  0  0  0  0
  6  7  4  0  0  0  0
  7  8  1  0  0  0  0
  8  9  1  0  0  0  0
  9 10  1  0  0  0  0
 10 11  2  0  0  0  0
 11 12  1  0  0  0  0
 11 13  1  0  0  0  0
  7 13  4  0  0  0  0
 13 14  4  0  0  0  0
 14 15  4  0  0  0  0
  6 15  4  0  0  0  0
 15 16  4  0  0  0  0
  3 16  4  0  0  0  0
M  STY  1   1 DAT
M  SAL   1  1  14
M  SDT   1 MRV_IMPLICIT_H                                        
M  SDD   1     0.0000    0.0000    DR    ALL  0       0  
M  SED   1 IMPL_H1
M  END

> <ChembankId>
1530

> <SMILES>
COc1ccc2c3CCN=C(C)c3[nH]c2c1

> <InChI>
1/C13H14N2O/c1-8-13-11(5-6-14-8)10-4-3-9(16-2)7-12(10)15-13/h3-4,7,15H,5-6H2,1-2H3

$$$$
1533
  Marvin  11101114202D          

 20 21  0  0  0  0            999 V2000
    2.0367   -0.4741    0.0000 C   0  0  0  0  0  0  0  0  0  0  0  0
    2.0367   -1.2991    0.0000 C   0  0  0  0  0  0  0  0  0  0  0  0
    2.7041   -1.7840    0.0000 C   0  0  0  0  0  0  0  0  0  0  0  0
    2.4492   -2.5687    0.0000 C   0  0  0  0  0  0  0  0  0  0  0  0
    2.9341   -3.2361    0.0000 C   0  0  0  0  0  0  0  0  0  0  0  0
    3.7546   -3.1499    0.0000 C   0  0  0  0  0  0  0  0  0  0  0  0
    4.2395   -3.8173    0.0000 O   0  0  0  0  0  0  0  0  0  0  0  0
    4.0902   -2.3962    0.0000 O   0  0  0  0  0  0  0  0  0  0  0  0
    1.6242   -2.5687    0.0000 N   0  0  0  0  0  0  0  0  0  0  0  0
    1.1393   -3.2361    0.0000 C   0  0  0  0  0  0  0  0  0  0  0  0
    1.3693   -1.7840    0.0000 C   0  0  0  0  0  0  0  0  0  0  0  0
    0.5846   -1.5291    0.0000 C   0  0  0  0  0  0  0  0  0  0  0  0
   -0.0284   -2.0811    0.0000 O   0  0  0  0  0  0  0  0  0  0  0  0
    0.4131   -0.7221    0.0000 C   0  0  0  0  0  0  0  0  0  0  0  0
   -0.3715   -0.4672    0.0000 C   0  0  0  0  0  0  0  0  0  0  0  0
   -0.5430    0.3398    0.0000 C   0  0  0  0  0  0  0  0  0  0  0  0
    0.0701    0.8918    0.0000 C   0  0  0  0  0  0  0  0  0  0  0  0
   -0.1015    1.6988    0.0000 Cl  0  0  0  0  0  0  0  0  0  0  0  0
    0.8547    0.6369    0.0000 C   0  0  0  0  0  0  0  0  0  0  0  0
    1.0262   -0.1701    0.0000 C   0  0  0  0  0  0  0  0  0  0  0  0
  1  2  1  0  0  0  0
  2  3  4  0  0  0  0
  3  4  4  0  0  0  0
  4  5  1  0  0  0  0
  5  6  1  0  0  0  0
  6  7  2  0  0  0  0
  6  8  1  0  0  0  0
  4  9  4  0  0  0  0
  9 10  1  0  0  0  0
  9 11  4  0  0  0  0
  2 11  4  0  0  0  0
 11 12  1  0  0  0  0
 12 13  2  0  0  0  0
 12 14  1  0  0  0  0
 14 15  4  0  0  0  0
 15 16  4  0  0  0  0
 16 17  4  0  0  0  0
 17 18  1  0  0  0  0
 17 19  4  0  0  0  0
 19 20  4  0  0  0  0
 14 20  4  0  0  0  0
M  END

> <ChembankId>
1533

> <SMILES>
Cc1cc(CC(=O)O)n(C)c1C(=O)c2ccc(Cl)cc2

> <InChI>
1/C15H14ClNO3/c1-9-7-12(8-13(18)19)17(2)14(9)15(20)10-3-5-11(16)6-4-10/h3-7H,8H2,1-2H3,(H,18,19)

$$$$
1539
  Marvin  11101114202D          

 23 25  0  0  1  0            999 V2000
    4.7720   -3.3727    0.0000 C   0  0  0  0  0  0  0  0  0  0  0  0
    4.1330   -2.8508    0.0000 C   0  0  1  0  0  0  0  0  0  0  0  0
    3.3616   -3.1433    0.0000 C   0  0  0  0  0  0  0  0  0  0  0  0
    3.2291   -3.9576    0.0000 O   0  0  0  0  0  0  0  0  0  0  0  0
    2.7226   -2.6214    0.0000 O   0  0  0  0  0  0  0  0  0  0  0  0
    1.9512   -2.9139    0.0000 C   0  0  2  0  0  0  0  0  0  0  0  0
    1.4990   -3.6039    0.0000 C   0  0  0  0  0  0  0  0  0  0  0  0
    0.7030   -3.3871    0.0000 C   0  0  0  0  0  0  0  0  0  0  0  0
    0.6632   -2.5630    0.0000 N   0  0  0  0  0  0  0  0  0  0  0  0
    0.1467   -1.9197    0.0000 C   0  0  0  0  0  0  0  0  0  0  0  0
    0.5989   -1.2297    0.0000 C   0  0  0  0  0  0  0  0  0  0  0  0
    1.4446   -1.5777    0.0000 C   0  0  0  0  0  0  0  0  0  0  0  0
    2.2741   -1.2214    0.0000 C   0  0  0  0  0  0  0  0  0  0  0  0
    2.6517   -0.4878    0.0000 O   0  0  0  0  0  0  0  0  0  0  0  0
    3.4660   -0.6203    0.0000 C   0  0  0  0  0  0  0  0  0  0  0  0
    4.0518   -0.0394    0.0000 O   0  0  0  0  0  0  0  0  0  0  0  0
    3.5917   -1.4357    0.0000 C   0  0  2  0  0  0  0  0  0  0  0  0
    4.1003   -0.7862    0.0000 C   0  0  0  0  0  0  0  0  0  0  0  0
    4.4134   -1.3623    0.0000 O   0  0  0  0  0  0  0  0  0  0  0  0
    4.2654   -2.0365    0.0000 C   0  0  1  0  0  0  0  0  0  0  0  0
    4.8257   -1.4310    0.0000 C   0  0  0  0  0  0  0  0  0  0  0  0
    5.0820   -2.1541    0.0000 O   0  0  0  0  0  0  0  0  0  0  0  0
    1.3122   -2.3920    0.0000 C   0  0  2  0  0  0  0  0  0  0  0  0
  2  1  1  1  0  0  0
  2  3  1  0  0  0  0
  3  4  2  0  0  0  0
  3  5  1  0  0  0  0
  6  5  1  6  0  0  0
  6  7  1  0  0  0  0
  7  8  1  0  0  0  0
  8  9  1  0  0  0  0
  9 10  1  0  0  0  0
 10 11  1  0  0  0  0
 11 12  2  0  0  0  0
 12 13  1  0  0  0  0
 13 14  1  0  0  0  0
 14 15  1  0  0  0  0
 15 16  2  0  0  0  0
 15 17  1  0  0  0  0
 17 18  1  1  0  0  0
 17 19  1  6  0  0  0
 17 20  1  0  0  0  0
  2 20  1  0  0  0  0
 20 21  1  1  0  0  0
 20 22  1  6  0  0  0
 12 23  1  0  0  0  0
  6 23  1  0  0  0  0
 23  9  1  6  0  0  0
M  END

> <ChembankId>
1539

> <SMILES>
C[C@H]1C(=O)O[C@@H]2CCN3CC=C(COC(=O)[C@](C)(O)[C@]1(C)O)[C@H]23

> <InChI>
1/C16H23NO6/c1-9-13(18)23-11-5-7-17-6-4-10(12(11)17)8-22-14(19)16(3,21)15(9,2)20/h4,9,11-12,20-21H,5-8H2,1-3H3

$$$$
1578
  Marvin  11101114202D          

 15 17  0  0  0  0            999 V2000
    3.6633   -1.1567    0.0000 C   0  0  0  0  0  0  0  0  0  0  0  0
    3.4084   -0.3721    0.0000 C   0  0  0  0  0  0  0  0  0  0  0  0
    3.9604    0.2410    0.0000 N   0  0  0  0  0  0  0  0  0  0  0  0
    3.7054    1.0256    0.0000 C   0  0  0  0  0  0  0  0  0  0  0  0
    2.8985    1.1971    0.0000 C   0  0  0  0  0  0  0  0  0  0  0  0
    2.3464    0.5840    0.0000 C   0  0  0  0  0  0  0  0  0  0  0  0
    2.6014   -0.2006    0.0000 C   0  0  0  0  0  0  0  0  0  0  0  0
    1.9339   -0.6855    0.0000 N   0  0  0  0  0  0  0  0  0  0  0  0
    1.2665   -0.2006    0.0000 C   0  0  0  0  0  0  0  0  0  0  0  0
    0.4595   -0.3721    0.0000 C   0  0  0  0  0  0  0  0  0  0  0  0
   -0.0925    0.2410    0.0000 C   0  0  0  0  0  0  0  0  0  0  0  0
   -0.8995    0.0694    0.0000 O   0  0  0  0  0  0  0  0  0  0  0  0
    0.1624    1.0256    0.0000 C   0  0  0  0  0  0  0  0  0  0  0  0
    0.9694    1.1971    0.0000 C   0  0  0  0  0  0  0  0  0  0  0  0
    1.5214    0.5840    0.0000 C   0  0  0  0  0  0  0  0  0  0  0  0
  1  2  1  0  0  0  0
  2  3  2  0  0  0  0
  3  4  1  0  0  0  0
  4  5  1  0  0  0  0
  5  6  1  0  0  0  0
  6  7  4  0  0  0  0
  2  7  1  0  0  0  0
  7  8  4  0  0  0  0
  8  9  4  0  0  0  0
  9 10  4  0  0  0  0
 10 11  4  0  0  0  0
 11 12  1  0  0  0  0
 11 13  4  0  0  0  0
 13 14  4  0  0  0  0
 14 15  4  0  0  0  0
  6 15  4  0  0  0  0
  9 15  4  0  0  0  0
M  STY  1   1 DAT
M  SAL   1  1   8
M  SDT   1 MRV_IMPLICIT_H                                        
M  SDD   1     0.0000    0.0000    DR    ALL  0       0  
M  SED   1 IMPL_H1
M  END

> <ChembankId>
1578

> <SMILES>
CC1=NCCc2c1[nH]c3cc(O)ccc23

> <InChI>
1/C12H12N2O/c1-7-12-10(4-5-13-7)9-3-2-8(15)6-11(9)14-12/h2-3,6,14-15H,4-5H2,1H3

$$$$
1603
  Marvin  11101114202D          

 23 24  0  0  0  0            999 V2000
    1.4289   -4.1250    0.0000 O   0  0  0  0  0  0  0  0  0  0  0  0
    2.1434   -3.7125    0.0000 C   0  0  0  0  0  0  0  0  0  0  0  0
    2.1434   -2.8875    0.0000 O   0  0  0  0  0  0  0  0  0  0  0  0
    2.8579   -4.1250    0.0000 C   0  0  0  0  0  0  0  0  0  0  0  0
    3.5724   -3.7125    0.0000 C   0  0  0  0  0  0  0  0  0  0  0  0
    4.2868   -4.1250    0.0000 C   0  0  0  0  0  0  0  0  0  0  0  0
    4.2868   -4.9500    0.0000 O   0  0  0  0  0  0  0  0  0  0  0  0
    5.0013   -3.7125    0.0000 N   0  0  0  0  0  0  0  0  0  0  0  0
    5.7158   -4.1250    0.0000 C   0  0  0  0  0  0  0  0  0  0  0  0
    6.4302   -3.7125    0.0000 C   0  0  0  0  0  0  0  0  0  0  0  0
    7.1447   -4.1250    0.0000 C   0  0  0  0  0  0  0  0  0  0  0  0
    7.1447   -4.9500    0.0000 C   0  0  0  0  0  0  0  0  0  0  0  0
    6.4302   -5.3625    0.0000 C   0  0  0  0  0  0  0  0  0  0  0  0
    5.7158   -4.9500    0.0000 C   0  0  0  0  0  0  0  0  0  0  0  0
    7.8592   -5.3625    0.0000 S   0  0  0  0  0  0  0  0  0  0  0  0
    7.4467   -6.0770    0.0000 O   0  0  0  0  0  0  0  0  0  0  0  0
    8.2717   -4.6480    0.0000 O   0  0  0  0  0  0  0  0  0  0  0  0
    8.5737   -5.7750    0.0000 N   0  0  0  0  0  0  0  0  0  0  0  0
    8.5737   -6.6000    0.0000 C   0  0  0  0  0  0  0  0  0  0  0  0
    9.2411   -7.0849    0.0000 N   0  0  0  0  0  0  0  0  0  0  0  0
    8.9862   -7.8695    0.0000 C   0  0  0  0  0  0  0  0  0  0  0  0
    8.1612   -7.8695    0.0000 C   0  0  0  0  0  0  0  0  0  0  0  0
    7.9062   -7.0849    0.0000 S   0  0  0  0  0  0  0  0  0  0  0  0
  1  2  1  0  0  0  0
  2  3  2  0  0  0  0
  2  4  1  0  0  0  0
  4  5  1  0  0  0  0
  5  6  1  0  0  0  0
  6  7  2  0  0  0  0
  6  8  1  0  0  0  0
  8  9  1  0  0  0  0
  9 10  4  0  0  0  0
 10 11  4  0  0  0  0
 11 12  4  0  0  0  0
 12 13  4  0  0  0  0
 13 14  4  0  0  0  0
  9 14  4  0  0  0  0
 12 15  1  0  0  0  0
 15 16  2  0  0  0  0
 15 17  2  0  0  0  0
 15 18  1  0  0  0  0
 18 19  1  0  0  0  0
 19 20  4  0  0  0  0
 20 21  4  0  0  0  0
 21 22  4  0  0  0  0
 22 23  4  0  0  0  0
 19 23  4  0  0  0  0
M  END

> <ChembankId>
1603

> <SMILES>
OC(=O)CCC(=O)Nc1ccc(cc1)S(=O)(=O)Nc2nccs2

> <InChI>
1/C13H13N3O5S2/c17-11(5-6-12(18)19)15-9-1-3-10(4-2-9)23(20,21)16-13-14-7-8-22-13/h1-4,7-8H,5-6H2,(H,14,16)(H,15,17)(H,18,19)

$$$$
1604
  Marvin  11101114202D          

 27 29  0  0  0  0            999 V2000
   -4.3935    5.5902    0.0000 O   0  0  0  0  0  0  0  0  0  0  0  0
   -3.6791    6.0027    0.0000 C   0  0  0  0  0  0  0  0  0  0  0  0
   -2.9646    5.5902    0.0000 O   0  0  0  0  0  0  0  0  0  0  0  0
   -3.6791    6.8277    0.0000 C   0  0  0  0  0  0  0  0  0  0  0  0
   -4.3935    7.2402    0.0000 C   0  0  0  0  0  0  0  0  0  0  0  0
   -4.3935    8.0652    0.0000 C   0  0  0  0  0  0  0  0  0  0  0  0
   -3.6791    8.4777    0.0000 C   0  0  0  0  0  0  0  0  0  0  0  0
   -2.9646    8.0652    0.0000 C   0  0  0  0  0  0  0  0  0  0  0  0
   -2.9646    7.2402    0.0000 C   0  0  0  0  0  0  0  0  0  0  0  0
   -2.2501    6.8277    0.0000 C   0  0  0  0  0  0  0  0  0  0  0  0
   -2.2501    6.0027    0.0000 O   0  0  0  0  0  0  0  0  0  0  0  0
   -1.5356    7.2402    0.0000 N   0  0  0  0  0  0  0  0  0  0  0  0
   -0.8212    6.8277    0.0000 C   0  0  0  0  0  0  0  0  0  0  0  0
   -0.1067    7.2402    0.0000 C   0  0  0  0  0  0  0  0  0  0  0  0
    0.6078    6.8277    0.0000 C   0  0  0  0  0  0  0  0  0  0  0  0
    0.6078    6.0027    0.0000 C   0  0  0  0  0  0  0  0  0  0  0  0
   -0.1067    5.5902    0.0000 C   0  0  0  0  0  0  0  0  0  0  0  0
   -0.8212    6.0027    0.0000 C   0  0  0  0  0  0  0  0  0  0  0  0
    1.3222    5.5902    0.0000 S   0  0  0  0  0  0  0  0  0  0  0  0
    0.9097    4.8757    0.0000 O   0  0  0  0  0  0  0  0  0  0  0  0
    1.7347    6.3047    0.0000 O   0  0  0  0  0  0  0  0  0  0  0  0
    2.0367    5.1777    0.0000 N   0  0  0  0  0  0  0  0  0  0  0  0
    2.0367    4.3527    0.0000 C   0  0  0  0  0  0  0  0  0  0  0  0
    2.7041    3.8678    0.0000 N   0  0  0  0  0  0  0  0  0  0  0  0
    2.4492    3.0831    0.0000 C   0  0  0  0  0  0  0  0  0  0  0  0
    1.6242    3.0831    0.0000 C   0  0  0  0  0  0  0  0  0  0  0  0
    1.3693    3.8678    0.0000 S   0  0  0  0  0  0  0  0  0  0  0  0
  1  2  1  0  0  0  0
  2  3  2  0  0  0  0
  2  4  1  0  0  0  0
  4  5  4  0  0  0  0
  5  6  4  0  0  0  0
  6  7  4  0  0  0  0
  7  8  4  0  0  0  0
  8  9  4  0  0  0  0
  4  9  4  0  0  0  0
  9 10  1  0  0  0  0
 10 11  2  0  0  0  0
 10 12  1  0  0  0  0
 12 13  1  0  0  0  0
 13 14  4  0  0  0  0
 14 15  4  0  0  0  0
 15 16  4  0  0  0  0
 16 17  4  0  0  0  0
 17 18  4  0  0  0  0
 13 18  4  0  0  0  0
 16 19  1  0  0  0  0
 19 20  2  0  0  0  0
 19 21  2  0  0  0  0
 19 22  1  0  0  0  0
 22 23  1  0  0  0  0
 23 24  4  0  0  0  0
 24 25  4  0  0  0  0
 25 26  4  0  0  0  0
 26 27  4  0  0  0  0
 23 27  4  0  0  0  0
M  END

> <ChembankId>
1604

> <SMILES>
OC(=O)c1ccccc1C(=O)Nc2ccc(cc2)S(=O)(=O)Nc3nccs3

> <InChI>
1/C17H13N3O5S2/c21-15(13-3-1-2-4-14(13)16(22)23)19-11-5-7-12(8-6-11)27(24,25)20-17-18-9-10-26-17/h1-10H,(H,18,20)(H,19,21)(H,22,23)

$$$$
1606
  Marvin  11101114202D          

 22 23  0  0  0  0            999 V2000
   -4.2868    0.8250    0.0000 N   0  0  0  0  0  0  0  0  0  0  0  0
   -3.5724    1.2375    0.0000 S   0  0  0  0  0  0  0  0  0  0  0  0
   -3.1599    0.5230    0.0000 O   0  0  0  0  0  0  0  0  0  0  0  0
   -3.9849    1.9520    0.0000 O   0  0  0  0  0  0  0  0  0  0  0  0
   -2.8579    1.6500    0.0000 C   0  0  0  0  0  0  0  0  0  0  0  0
   -2.1434    1.2375    0.0000 C   0  0  0  0  0  0  0  0  0  0  0  0
   -1.4289    1.6500    0.0000 C   0  0  0  0  0  0  0  0  0  0  0  0
   -1.4289    2.4750    0.0000 C   0  0  0  0  0  0  0  0  0  0  0  0
   -0.7145    2.8875    0.0000 N   0  0  0  0  0  0  0  0  0  0  0  0
    0.0000    2.4750    0.0000 C   0  0  0  0  0  0  0  0  0  0  0  0
    0.7145    2.8875    0.0000 C   0  0  0  0  0  0  0  0  0  0  0  0
    1.4289    2.4750    0.0000 S   0  0  0  0  0  0  0  0  0  0  0  0
    2.1434    2.8875    0.0000 C   0  0  0  0  0  0  0  0  0  0  0  0
    2.8579    2.4750    0.0000 C   0  0  0  0  0  0  0  0  0  0  0  0
    3.5724    2.8875    0.0000 C   0  0  0  0  0  0  0  0  0  0  0  0
    0.0000    1.6500    0.0000 N   0  0  0  0  0  0  0  0  0  0  0  0
   -0.7145    1.2375    0.0000 S   0  0  0  0  0  0  0  0  0  0  0  0
   -0.3272    0.5091    0.0000 O   0  0  0  0  0  0  0  0  0  0  0  0
   -1.1018    0.5091    0.0000 O   0  0  0  0  0  0  0  0  0  0  0  0
   -2.1434    2.8875    0.0000 C   0  0  0  0  0  0  0  0  0  0  0  0
   -2.8579    2.4750    0.0000 C   0  0  0  0  0  0  0  0  0  0  0  0
   -3.5724    2.8875    0.0000 Cl  0  0  0  0  0  0  0  0  0  0  0  0
  1  2  1  0  0  0  0
  2  3  2  0  0  0  0
  2  4  2  0  0  0  0
  2  5  1  0  0  0  0
  5  6  4  0  0  0  0
  6  7  4  0  0  0  0
  7  8  4  0  0  0  0
  8  9  1  0  0  0  0
  9 10  1  0  0  0  0
 10 11  1  0  0  0  0
 11 12  1  0  0  0  0
 12 13  1  0  0  0  0
 13 14  1  0  0  0  0
 14 15  2  0  0  0  0
 10 16  1  0  0  0  0
 16 17  1  0  0  0  0
  7 17  1  0  0  0  0
 17 18  2  0  0  0  0
 17 19  2  0  0  0  0
  8 20  4  0  0  0  0
 20 21  4  0  0  0  0
  5 21  4  0  0  0  0
 21 22  1  0  0  0  0
M  END

> <ChembankId>
1606

> <SMILES>
NS(=O)(=O)c1cc2c(NC(CSCC=C)NS2(=O)=O)cc1Cl

> <InChI>
1/C11H14ClN3O4S3/c1-2-3-20-6-11-14-8-4-7(12)9(21(13,16)17)5-10(8)22(18,19)15-11/h2,4-5,11,14-15H,1,3,6H2,(H2,13,16,17)

$$$$
1000946
  Marvin  11101114202D          

 26 28  0  0  0  0            999 V2000
   -1.4289   -4.9500    0.0000 C   0  0  0  0  0  0  0  0  0  0  0  0
   -1.4289   -4.1250    0.0000 O   0  0  0  0  0  0  0  0  0  0  0  0
   -0.7145   -3.7125    0.0000 C   0  0  0  0  0  0  0  0  0  0  0  0
   -0.7145   -2.8875    0.0000 C   0  0  0  0  0  0  0  0  0  0  0  0
    0.0000   -2.4750    0.0000 C   0  0  0  0  0  0  0  0  0  0  0  0
    0.7145   -2.8875    0.0000 C   0  0  0  0  0  0  0  0  0  0  0  0
    1.4289   -2.4750    0.0000 C   0  0  0  0  0  0  0  0  0  0  0  0
    1.4289   -1.6500    0.0000 C   0  0  0  0  0  0  0  0  0  0  0  0
    0.7145   -1.2375    0.0000 N   0  0  0  0  0  0  0  0  0  0  0  0
    0.0000   -1.6500    0.0000 C   0  0  0  0  0  0  0  0  0  0  0  0
    0.7145   -0.4125    0.0000 C   0  0  0  0  0  0  0  0  0  0  0  0
    1.4289    0.0000    0.0000 C   0  0  0  0  0  0  0  0  0  0  0  0
    2.1434   -0.4125    0.0000 C   0  0  0  0  0  0  0  0  0  0  0  0
    2.8579    0.0000    0.0000 C   0  0  0  0  0  0  0  0  0  0  0  0
    3.5724   -0.4125    0.0000 C   0  0  0  0  0  0  0  0  0  0  0  0
    4.2868   -0.0000    0.0000 O   0  0  0  0  0  0  0  0  0  0  0  0
    4.2868    0.8250    0.0000 C   0  0  0  0  0  0  0  0  0  0  0  0
    3.5724   -1.2375    0.0000 C   0  0  0  0  0  0  0  0  0  0  0  0
    4.2868   -1.6500    0.0000 O   0  0  0  0  0  0  0  0  0  0  0  0
    4.2868   -2.4750    0.0000 C   0  0  0  0  0  0  0  0  0  0  0  0
    2.8579   -1.6500    0.0000 C   0  0  0  0  0  0  0  0  0  0  0  0
    2.1434   -1.2375    0.0000 C   0  0  0  0  0  0  0  0  0  0  0  0
    0.7145   -3.7125    0.0000 C   0  0  0  0  0  0  0  0  0  0  0  0
    0.0000   -4.1250    0.0000 C   0  0  0  0  0  0  0  0  0  0  0  0
    0.0000   -4.9500    0.0000 O   0  0  0  0  0  0  0  0  0  0  0  0
   -0.7145   -5.3625    0.0000 C   0  0  0  0  0  0  0  0  0  0  0  0
  1  2  1  0  0  0  0
  2  3  1  0  0  0  0
  3  4  4  0  0  0  0
  4  5  4  0  0  0  0
  5  6  4  0  0  0  0
  6  7  1  0  0  0  0
  7  8  1  0  0  0  0
  8  9  1  0  0  0  0
  9 10  1  0  0  0  0
  9 11  1  0  0  0  0
 11 12  1  0  0  0  0
 12 13  1  0  0  0  0
 13 14  4  0  0  0  0
 14 15  4  0  0  0  0
 15 16  1  0  0  0  0
 16 17  1  0  0  0  0
 15 18  4  0  0  0  0
 18 19  1  0  0  0  0
 19 20  1  0  0  0  0
 18 21  4  0  0  0  0
 21 22  4  0  0  0  0
  8 22  1  0  0  0  0
 13 22  4  0  0  0  0
  6 23  4  0  0  0  0
 23 24  4  0  0  0  0
  3 24  4  0  0  0  0
 24 25  1  0  0  0  0
 25 26  1  0  0  0  0
M  END

> <ChembankId>
1000946

> <SMILES>
COc1ccc(CC2N(C)CCc3cc(OC)c(OC)cc23)cc1OC

> <InChI>
1/C21H27NO4/c1-22-9-8-15-12-20(25-4)21(26-5)13-16(15)17(22)10-14-6-7-18(23-2)19(11-14)24-3/h6-7,11-13,17H,8-10H2,1-5H3

$$$$
3173993
  Marvin  11101114202D          

 25 29  0  0  1  0            999 V2000
    1.7489   -2.8115    0.0000 O   0  0  0  0  0  0  0  0  0  0  0  0
    2.2873   -3.4366    0.0000 C   0  0  1  0  0  0  0  0  0  0  0  0
    2.0151   -4.2154    0.0000 C   0  0  0  0  0  0  0  0  0  0  0  0
    2.5535   -4.8405    0.0000 C   0  0  0  0  0  0  0  0  0  0  0  0
    3.3641   -4.6868    0.0000 C   0  0  1  0  0  0  0  0  0  0  0  0
    3.9025   -5.3119    0.0000 C   0  0  0  0  0  0  0  0  0  0  0  0
    4.7131   -5.1582    0.0000 N   0  0  0  0  0  0  0  0  0  0  0  0
    5.2515   -5.7833    0.0000 C   0  0  0  0  0  0  0  0  0  0  0  0
    6.0620   -5.6295    0.0000 C   0  0  0  0  0  0  0  0  0  0  0  0
    6.3342   -4.8507    0.0000 C   0  0  0  0  0  0  0  0  0  0  0  0
    5.7957   -4.2256    0.0000 C   0  0  0  0  0  0  0  0  0  0  0  0
    6.2239   -3.5204    0.0000 N   0  0  0  0  0  0  0  0  0  0  0  0
    7.0269   -3.7096    0.0000 C   0  0  0  0  0  0  0  0  0  0  0  0
    7.7048   -3.2395    0.0000 C   0  0  0  0  0  0  0  0  0  0  0  0
    8.4509   -3.5916    0.0000 C   0  0  0  0  0  0  0  0  0  0  0  0
    8.5191   -4.4138    0.0000 C   0  0  0  0  0  0  0  0  0  0  0  0
    7.8411   -4.8839    0.0000 C   0  0  0  0  0  0  0  0  0  0  0  0
    7.0950   -4.5318    0.0000 C   0  0  0  0  0  0  0  0  0  0  0  0
    4.9852   -4.3793    0.0000 C   0  0  2  0  0  0  0  0  0  0  0  0
    4.4468   -3.7542    0.0000 C   0  0  0  0  0  0  0  0  0  0  0  0
    3.6362   -3.9080    0.0000 C   0  0  2  0  0  0  0  0  0  0  0  0
    3.0978   -3.2829    0.0000 C   0  0  1  0  0  0  0  0  0  0  0  0
    3.3700   -2.5041    0.0000 C   0  0  0  0  0  0  0  0  0  0  0  0
    2.8316   -1.8790    0.0000 O   0  0  0  0  0  0  0  0  0  0  0  0
    4.1805   -2.3503    0.0000 O   0  0  0  0  0  0  0  0  0  0  0  0
  2  1  1  6  0  0  0
  2  3  1  0  0  0  0
  3  4  1  0  0  0  0
  4  5  1  0  0  0  0
  5  6  1  6  0  0  0
  6  7  1  0  0  0  0
  7  8  1  0  0  0  0
  8  9  1  0  0  0  0
  9 10  1  0  0  0  0
 10 11  4  0  0  0  0
 11 12  4  0  0  0  0
 12 13  4  0  0  0  0
 13 14  4  0  0  0  0
 14 15  4  0  0  0  0
 15 16  4  0  0  0  0
 16 17  4  0  0  0  0
 17 18  4  0  0  0  0
 10 18  4  0  0  0  0
 13 18  4  0  0  0  0
 11 19  1  0  0  0  0
  7 19  1  0  0  0  0
 19 20  1  1  0  0  0
 21 20  1  1  0  0  0
  5 21  1  0  0  0  0
 21 22  1  0  0  0  0
  2 22  1  0  0  0  0
 22 23  1  6  0  0  0
 23 24  2  0  0  0  0
 23 25  1  0  0  0  0
M  STY  1   1 DAT
M  SAL   1  1  12
M  SDT   1 MRV_IMPLICIT_H                                        
M  SDD   1     0.0000    0.0000    DR    ALL  0       0  
M  SED   1 IMPL_H1
M  END

> <ChembankId>
3173993

> <SMILES>
O[C@H]1CC[C@H]2CN3CCc4c([nH]c5ccccc45)[C@@H]3C[C@@H]2[C@H]1C(=O)O

> <InChI>
1/C20H24N2O3/c23-17-6-5-11-10-22-8-7-13-12-3-1-2-4-15(12)21-19(13)16(22)9-14(11)18(17)20(24)25/h1-4,11,14,16-18,21,23H,5-10H2,(H,24,25)

$$$$
1020463
  Marvin  11101114202D          

 13 14  0  0  0  0            999 V2000
    0.0000    0.0000    0.0000 O   0  0  0  0  0  0  0  0  0  0  0  0
    0.7145   -0.4125    0.0000 C   0  0  0  0  0  0  0  0  0  0  0  0
    1.4289    0.0000    0.0000 C   0  0  0  0  0  0  0  0  0  0  0  0
    2.1434   -0.4125    0.0000 C   0  0  0  0  0  0  0  0  0  0  0  0
    2.8579    0.0000    0.0000 C   0  0  0  0  0  0  0  0  0  0  0  0
    3.5724   -0.4125    0.0000 C   0  0  0  0  0  0  0  0  0  0  0  0
    3.5724   -1.2375    0.0000 C   0  0  0  0  0  0  0  0  0  0  0  0
    4.2868   -1.6500    0.0000 O   0  0  0  0  0  0  0  0  0  0  0  0
    2.8579   -1.6500    0.0000 O   0  0  0  0  0  0  0  0  0  0  0  0
    2.1434   -1.2375    0.0000 C   0  0  0  0  0  0  0  0  0  0  0  0
    1.4289   -1.6500    0.0000 C   0  0  0  0  0  0  0  0  0  0  0  0
    0.7145   -1.2375    0.0000 C   0  0  0  0  0  0  0  0  0  0  0  0
    0.0000   -1.6500    0.0000 O   0  0  0  0  0  0  0  0  0  0  0  0
  1  2  1  0  0  0  0
  2  3  4  0  0  0  0
  3  4  4  0  0  0  0
  4  5  4  0  0  0  0
  5  6  4  0  0  0  0
  6  7  4  0  0  0  0
  7  8  2  0  0  0  0
  7  9  4  0  0  0  0
  9 10  4  0  0  0  0
  4 10  4  0  0  0  0
 10 11  4  0  0  0  0
 11 12  4  0  0  0  0
  2 12  4  0  0  0  0
 12 13  1  0  0  0  0
M  END

> <ChembankId>
1020463

> <SMILES>
Oc1cc2ccc(=O)oc2cc1O

> <InChI>
1/C9H6O4/c10-6-3-5-1-2-9(12)13-8(5)4-7(6)11/h1-4,10-11H

$$$$
1043296
  Marvin  11101114202D          

 15 17  0  0  0  0            999 V2000
    0.7117   -3.5424    0.0000 C   0  0  0  0  0  0  0  0  0  0  0  0
    0.9666   -2.7578    0.0000 C   0  0  0  0  0  0  0  0  0  0  0  0
    0.4146   -2.1447    0.0000 N   0  0  0  0  0  0  0  0  0  0  0  0
    0.6695   -1.3601    0.0000 C   0  0  0  0  0  0  0  0  0  0  0  0
    1.4765   -1.1885    0.0000 C   0  0  0  0  0  0  0  0  0  0  0  0
    2.0285   -1.8016    0.0000 C   0  0  0  0  0  0  0  0  0  0  0  0
    2.8535   -1.8016    0.0000 C   0  0  0  0  0  0  0  0  0  0  0  0
    3.4056   -1.1885    0.0000 C   0  0  0  0  0  0  0  0  0  0  0  0
    4.2125   -1.3601    0.0000 C   0  0  0  0  0  0  0  0  0  0  0  0
    4.4675   -2.1447    0.0000 C   0  0  0  0  0  0  0  0  0  0  0  0
    5.2744   -2.3162    0.0000 O   0  0  0  0  0  0  0  0  0  0  0  0
    3.9154   -2.7578    0.0000 C   0  0  0  0  0  0  0  0  0  0  0  0
    3.1085   -2.5862    0.0000 C   0  0  0  0  0  0  0  0  0  0  0  0
    2.4410   -3.0712    0.0000 N   0  0  0  0  0  0  0  0  0  0  0  0
    1.7736   -2.5862    0.0000 C   0  0  0  0  0  0  0  0  0  0  0  0
  1  2  1  0  0  0  0
  2  3  4  0  0  0  0
  3  4  4  0  0  0  0
  4  5  4  0  0  0  0
  5  6  4  0  0  0  0
  6  7  4  0  0  0  0
  7  8  4  0  0  0  0
  8  9  4  0  0  0  0
  9 10  4  0  0  0  0
 10 11  1  0  0  0  0
 10 12  4  0  0  0  0
 12 13  4  0  0  0  0
  7 13  4  0  0  0  0
 13 14  4  0  0  0  0
 14 15  4  0  0  0  0
  2 15  4  0  0  0  0
  6 15  4  0  0  0  0
M  STY  1   1 DAT
M  SAL   1  1  14
M  SDT   1 MRV_IMPLICIT_H                                        
M  SDD   1     0.0000    0.0000    DR    ALL  0       0  
M  SED   1 IMPL_H1
M  END

> <ChembankId>
1043296

> <SMILES>
Cc1nccc2c3ccc(O)cc3[nH]c12

> <InChI>
1/C12H10N2O/c1-7-12-10(4-5-13-7)9-3-2-8(15)6-11(9)14-12/h2-6,14-15H,1H3

$$$$
2554
  Marvin  11101114202D          

 26 30  0  0  1  0            999 V2000
   -0.0401   -0.2282    0.0000 C   0  0  0  0  0  0  0  0  0  0  0  0
    0.7847   -0.2426    0.0000 C   0  0  1  0  0  0  0  0  0  0  0  0
    1.2813    0.4162    0.0000 C   0  0  1  0  0  0  0  0  0  0  0  0
    1.2958    1.2411    0.0000 C   0  0  0  0  0  0  0  0  0  0  0  0
    2.0847    1.4822    0.0000 C   0  0  0  0  0  0  0  0  0  0  0  0
    2.5579    0.8064    0.0000 C   0  0  0  0  0  0  0  0  0  0  0  0
    3.3767    0.7057    0.0000 C   0  0  0  0  0  0  0  0  0  0  0  0
    3.8733    1.3646    0.0000 C   0  0  0  0  0  0  0  0  0  0  0  0
    4.6921    1.2640    0.0000 C   0  0  0  0  0  0  0  0  0  0  0  0
    5.0144    0.5045    0.0000 C   0  0  0  0  0  0  0  0  0  0  0  0
    5.8332    0.4039    0.0000 C   0  0  0  0  0  0  0  0  0  0  0  0
    6.1555   -0.3556    0.0000 C   0  0  2  0  0  0  0  0  0  0  0  0
    5.6590   -1.0144    0.0000 C   0  0  0  0  0  0  0  0  0  0  0  0
    4.8401   -0.9138    0.0000 C   0  0  0  0  0  0  0  0  0  0  0  0
    4.5178   -0.1543    0.0000 C   0  0  1  0  0  0  0  0  0  0  0  0
    4.0213   -0.8131    0.0000 C   0  0  0  0  0  0  0  0  0  0  0  0
    3.6990   -0.0537    0.0000 C   0  0  0  0  0  0  0  0  0  0  0  0
    3.2024   -0.7125    0.0000 C   0  0  0  0  0  0  0  0  0  0  0  0
    2.3836   -0.6119    0.0000 C   0  0  0  0  0  0  0  0  0  0  0  0
    2.0613    0.1475    0.0000 C   0  0  2  0  0  0  0  0  0  0  0  0
    2.0468   -0.6773    0.0000 C   0  0  0  0  0  0  0  0  0  0  0  0
    1.2579   -0.9185    0.0000 N   0  0  0  0  0  0  0  0  0  0  0  0
    0.9892   -1.6985    0.0000 C   0  0  0  0  0  0  0  0  0  0  0  0
    6.9744   -0.4562    0.0000 N   0  0  0  0  0  0  0  0  0  0  0  0
    7.4709    0.2027    0.0000 C   0  0  0  0  0  0  0  0  0  0  0  0
    7.2966   -1.2156    0.0000 C   0  0  0  0  0  0  0  0  0  0  0  0
  2  1  1  1  0  0  0
  2  3  1  0  0  0  0
  3  4  1  1  0  0  0
  4  5  1  0  0  0  0
  5  6  1  0  0  0  0
  6  7  1  0  0  0  0
  7  8  1  0  0  0  0
  8  9  1  0  0  0  0
  9 10  2  0  0  0  0
 10 11  1  0  0  0  0
 11 12  1  0  0  0  0
 12 13  1  0  0  0  0
 13 14  1  0  0  0  0
 14 15  1  0  0  0  0
 10 15  1  0  0  0  0
 15 16  1  1  0  0  0
 15 17  1  0  0  0  0
  7 17  1  0  0  0  0
 17 18  1  0  0  0  0
 18 19  1  0  0  0  0
 19 20  1  0  0  0  0
  3 20  1  0  0  0  0
  6 20  1  0  0  0  0
 20 21  1  1  0  0  0
 21 22  1  0  0  0  0
  2 22  1  0  0  0  0
 22 23  1  0  0  0  0
 12 24  1  1  0  0  0
 24 25  1  0  0  0  0
 24 26  1  0  0  0  0
M  END

> <ChembankId>
2554

> <SMILES>
C[C@H]1[C@H]2CCC3C4CC=C5C[C@H](CC[C@]5(C)C4CC[C@]23CN1C)N(C)C

> <InChI>
1/C24H40N2/c1-16-20-8-9-22-19-7-6-17-14-18(25(3)4)10-12-23(17,2)21(19)11-13-24(20,22)15-26(16)5/h6,16,18-22H,7-15H2,1-5H3

$$$$
3055310
  Marvin  11101114202D          

 23 25  0  0  1  0            999 V2000
    1.2079   -2.2539    0.0000 C   0  0  0  0  0  0  0  0  0  0  0  0
    2.0329   -2.2539    0.0000 O   0  0  0  0  0  0  0  0  0  0  0  0
    2.4454   -1.5395    0.0000 C   0  0  0  0  0  0  0  0  0  0  0  0
    2.0329   -0.8250    0.0000 C   0  0  0  0  0  0  0  0  0  0  0  0
    1.2079   -0.8250    0.0000 O   0  0  0  0  0  0  0  0  0  0  0  0
    2.4454   -0.1105    0.0000 C   0  0  0  0  0  0  0  0  0  0  0  0
    3.2704   -0.1105    0.0000 C   0  0  0  0  0  0  0  0  0  0  0  0
    3.6829    0.6039    0.0000 C   0  0  0  0  0  0  0  0  0  0  0  0
    3.2704    1.3184    0.0000 O   0  0  0  0  0  0  0  0  0  0  0  0
    4.5079    0.6039    0.0000 O   0  0  0  0  0  0  0  0  0  0  0  0
    4.9204   -0.1105    0.0000 C   0  0  1  0  0  0  0  0  0  0  0  0
    5.7454   -0.1105    0.0000 C   0  0  1  0  0  0  0  0  0  0  0  0
    6.1579    0.6039    0.0000 O   0  0  0  0  0  0  0  0  0  0  0  0
    6.1579   -0.8250    0.0000 C   0  0  2  0  0  0  0  0  0  0  0  0
    6.9829   -0.8250    0.0000 O   0  0  0  0  0  0  0  0  0  0  0  0
    5.7454   -1.5395    0.0000 C   0  0  1  0  0  0  0  0  0  0  0  0
    6.1579   -2.2539    0.0000 C   0  0  0  0  0  0  0  0  0  0  0  0
    5.7454   -2.9684    0.0000 O   0  0  0  0  0  0  0  0  0  0  0  0
    4.9204   -1.5395    0.0000 O   0  0  0  0  0  0  0  0  0  0  0  0
    4.5079   -0.8250    0.0000 C   0  0  2  0  0  0  0  0  0  0  0  0
    3.6829   -0.8250    0.0000 C   0  0  0  0  0  0  0  0  0  0  0  0
    3.2704   -1.5395    0.0000 C   0  0  0  0  0  0  0  0  0  0  0  0
    3.6829   -2.2539    0.0000 O   0  0  0  0  0  0  0  0  0  0  0  0
  1  2  1  0  0  0  0
  2  3  1  0  0  0  0
  3  4  4  0  0  0  0
  4  5  1  0  0  0  0
  4  6  4  0  0  0  0
  6  7  4  0  0  0  0
  7  8  1  0  0  0  0
  8  9  2  0  0  0  0
  8 10  1  0  0  0  0
 11 10  1  1  0  0  0
 11 12  1  0  0  0  0
 12 13  1  1  0  0  0
 12 14  1  0  0  0  0
 14 15  1  6  0  0  0
 14 16  1  0  0  0  0
 16 17  1  1  0  0  0
 17 18  1  0  0  0  0
 16 19  1  0  0  0  0
 20 19  1  6  0  0  0
 11 20  1  0  0  0  0
 20 21  1  0  0  0  0
  7 21  4  0  0  0  0
 21 22  4  0  0  0  0
  3 22  4  0  0  0  0
 22 23  1  0  0  0  0
M  END

> <ChembankId>
3055310

> <SMILES>
COc1c(O)cc2C(=O)O[C@H]3[C@@H](O)[C@H](O)[C@@H](CO)O[C@@H]3c2c1O

> <InChI>
1/C14H16O9/c1-21-11-5(16)2-4-7(9(11)18)12-13(23-14(4)20)10(19)8(17)6(3-15)22-12/h2,6,8,10,12-13,15-19H,3H2,1H3

$$$$
1113269
  Marvin  11101114202D          

 26 31  0  0  0  0            999 V2000
    8.1844   -3.1747    0.0000 C   0  0  0  0  0  0  0  0  0  0  0  0
    7.6894   -2.5147    0.0000 N   0  0  0  0  0  0  0  0  0  0  0  0
    6.8703   -2.6133    0.0000 C   0  0  0  0  0  0  0  0  0  0  0  0
    6.3754   -1.9533    0.0000 C   0  0  0  0  0  0  0  0  0  0  0  0
    5.5563   -2.0519    0.0000 C   0  0  0  0  0  0  0  0  0  0  0  0
    5.0815   -2.7266    0.0000 O   0  0  0  0  0  0  0  0  0  0  0  0
    4.2931   -2.4835    0.0000 C   0  0  0  0  0  0  0  0  0  0  0  0
    4.2807   -1.6586    0.0000 O   0  0  0  0  0  0  0  0  0  0  0  0
    5.0613   -1.3919    0.0000 C   0  0  0  0  0  0  0  0  0  0  0  0
    5.3855   -0.6332    0.0000 C   0  0  0  0  0  0  0  0  0  0  0  0
    6.2045   -0.5346    0.0000 C   0  0  0  0  0  0  0  0  0  0  0  0
    6.6995   -1.1946    0.0000 C   0  0  0  0  0  0  0  0  0  0  0  0
    7.5186   -1.0960    0.0000 C   0  0  0  0  0  0  0  0  0  0  0  0
    7.8427   -0.3373    0.0000 C   0  0  0  0  0  0  0  0  0  0  0  0
    7.3477    0.3227    0.0000 O   0  0  0  0  0  0  0  0  0  0  0  0
    8.6618   -0.2387    0.0000 C   0  0  0  0  0  0  0  0  0  0  0  0
    9.1567   -0.8987    0.0000 C   0  0  0  0  0  0  0  0  0  0  0  0
    9.9758   -0.8001    0.0000 C   0  0  0  0  0  0  0  0  0  0  0  0
   10.4708   -1.4601    0.0000 C   0  0  0  0  0  0  0  0  0  0  0  0
   11.2925   -1.5339    0.0000 O   0  0  0  0  0  0  0  0  0  0  0  0
   11.4762   -2.3382    0.0000 C   0  0  0  0  0  0  0  0  0  0  0  0
   10.7680   -2.7615    0.0000 O   0  0  0  0  0  0  0  0  0  0  0  0
   10.1467   -2.2188    0.0000 C   0  0  0  0  0  0  0  0  0  0  0  0
    9.3276   -2.3174    0.0000 C   0  0  0  0  0  0  0  0  0  0  0  0
    8.8326   -1.6574    0.0000 C   0  0  0  0  0  0  0  0  0  0  0  0
    8.0135   -1.7560    0.0000 C   0  0  0  0  0  0  0  0  0  0  0  0
  1  2  1  0  0  0  0
  2  3  1  0  0  0  0
  3  4  1  0  0  0  0
  4  5  4  0  0  0  0
  5  6  1  0  0  0  0
  6  7  1  0  0  0  0
  7  8  1  0  0  0  0
  8  9  1  0  0  0  0
  5  9  4  0  0  0  0
  9 10  4  0  0  0  0
 10 11  4  0  0  0  0
 11 12  4  0  0  0  0
  4 12  4  0  0  0  0
 12 13  1  0  0  0  0
 13 14  1  0  0  0  0
 14 15  1  0  0  0  0
 14 16  1  0  0  0  0
 16 17  1  0  0  0  0
 17 18  4  0  0  0  0
 18 19  4  0  0  0  0
 19 20  1  0  0  0  0
 20 21  1  0  0  0  0
 21 22  1  0  0  0  0
 22 23  1  0  0  0  0
 19 23  4  0  0  0  0
 23 24  4  0  0  0  0
 24 25  4  0  0  0  0
 17 25  4  0  0  0  0
 25 26  1  0  0  0  0
 13 26  1  0  0  0  0
  2 26  1  0  0  0  0
M  END

> <ChembankId>
1113269

> <SMILES>
CN1Cc2c3OCOc3ccc2C4C(O)Cc5cc6OCOc6cc5C41

> <InChI>
1/C20H19NO5/c1-21-7-13-11(2-3-15-20(13)26-9-23-15)18-14(22)4-10-5-16-17(25-8-24-16)6-12(10)19(18)21/h2-3,5-6,14,18-19,22H,4,7-9H2,1H3

$$$$
1035065
  Marvin  11101114202D          

 14 16  0  0  0  0            999 V2000
    0.7117   -3.5424    0.0000 C   0  0  0  0  0  0  0  0  0  0  0  0
    0.9666   -2.7578    0.0000 C   0  0  0  0  0  0  0  0  0  0  0  0
    0.4146   -2.1447    0.0000 N   0  0  0  0  0  0  0  0  0  0  0  0
    0.6695   -1.3601    0.0000 C   0  0  0  0  0  0  0  0  0  0  0  0
    1.4765   -1.1885    0.0000 C   0  0  0  0  0  0  0  0  0  0  0  0
    2.0285   -1.8016    0.0000 C   0  0  0  0  0  0  0  0  0  0  0  0
    2.8535   -1.8016    0.0000 C   0  0  0  0  0  0  0  0  0  0  0  0
    3.4056   -1.1885    0.0000 C   0  0  0  0  0  0  0  0  0  0  0  0
    4.2125   -1.3601    0.0000 C   0  0  0  0  0  0  0  0  0  0  0  0
    4.4675   -2.1447    0.0000 C   0  0  0  0  0  0  0  0  0  0  0  0
    3.9154   -2.7578    0.0000 C   0  0  0  0  0  0  0  0  0  0  0  0
    3.1085   -2.5862    0.0000 C   0  0  0  0  0  0  0  0  0  0  0  0
    2.4410   -3.0712    0.0000 N   0  0  0  0  0  0  0  0  0  0  0  0
    1.7736   -2.5862    0.0000 C   0  0  0  0  0  0  0  0  0  0  0  0
  1  2  1  0  0  0  0
  2  3  4  0  0  0  0
  3  4  4  0  0  0  0
  4  5  4  0  0  0  0
  5  6  4  0  0  0  0
  6  7  4  0  0  0  0
  7  8  4  0  0  0  0
  8  9  4  0  0  0  0
  9 10  4  0  0  0  0
 10 11  4  0  0  0  0
 11 12  4  0  0  0  0
  7 12  4  0  0  0  0
 12 13  4  0  0  0  0
 13 14  4  0  0  0  0
  2 14  4  0  0  0  0
  6 14  4  0  0  0  0
M  STY  1   1 DAT
M  SAL   1  1  13
M  SDT   1 MRV_IMPLICIT_H                                        
M  SDD   1     0.0000    0.0000    DR    ALL  0       0  
M  SED   1 IMPL_H1
M  END

> <ChembankId>
1035065

> <SMILES>
Cc1nccc2c3ccccc3[nH]c12

> <InChI>
1/C12H10N2/c1-8-12-10(6-7-13-8)9-4-2-3-5-11(9)14-12/h2-7,14H,1H3

$$$$
297849
  Marvin  11101114202D          

 16 18  0  0  0  0            999 V2000
    5.3194    0.6825    0.0000 C   0  0  0  0  0  0  0  0  0  0  0  0
    4.7674    0.0694    0.0000 O   0  0  0  0  0  0  0  0  0  0  0  0
    3.9604    0.2410    0.0000 C   0  0  0  0  0  0  0  0  0  0  0  0
    3.7054    1.0256    0.0000 C   0  0  0  0  0  0  0  0  0  0  0  0
    2.8985    1.1971    0.0000 C   0  0  0  0  0  0  0  0  0  0  0  0
    2.3464    0.5840    0.0000 C   0  0  0  0  0  0  0  0  0  0  0  0
    2.6014   -0.2006    0.0000 C   0  0  0  0  0  0  0  0  0  0  0  0
    3.4084   -0.3721    0.0000 C   0  0  0  0  0  0  0  0  0  0  0  0
    1.9339   -0.6855    0.0000 N   0  0  0  0  0  0  0  0  0  0  0  0
    1.2665   -0.2006    0.0000 C   0  0  0  0  0  0  0  0  0  0  0  0
    0.4595   -0.3721    0.0000 C   0  0  0  0  0  0  0  0  0  0  0  0
    0.2046   -1.1567    0.0000 C   0  0  0  0  0  0  0  0  0  0  0  0
   -0.0925    0.2410    0.0000 N   0  0  0  0  0  0  0  0  0  0  0  0
    0.1624    1.0256    0.0000 C   0  0  0  0  0  0  0  0  0  0  0  0
    0.9694    1.1971    0.0000 C   0  0  0  0  0  0  0  0  0  0  0  0
    1.5214    0.5840    0.0000 C   0  0  0  0  0  0  0  0  0  0  0  0
  1  2  1  0  0  0  0
  2  3  1  0  0  0  0
  3  4  4  0  0  0  0
  4  5  4  0  0  0  0
  5  6  4  0  0  0  0
  6  7  4  0  0  0  0
  7  8  4  0  0  0  0
  3  8  4  0  0  0  0
  7  9  4  0  0  0  0
  9 10  4  0  0  0  0
 10 11  4  0  0  0  0
 11 12  1  0  0  0  0
 11 13  4  0  0  0  0
 13 14  4  0  0  0  0
 14 15  4  0  0  0  0
 15 16  4  0  0  0  0
  6 16  4  0  0  0  0
 10 16  4  0  0  0  0
M  STY  1   1 DAT
M  SAL   1  1   9
M  SDT   1 MRV_IMPLICIT_H                                        
M  SDD   1     0.0000    0.0000    DR    ALL  0       0  
M  SED   1 IMPL_H1
M  END

> <ChembankId>
297849

> <SMILES>
COc1ccc2c(c1)[nH]c3c(C)nccc23

> <InChI>
1/C13H12N2O/c1-8-13-11(5-6-14-8)10-4-3-9(16-2)7-12(10)15-13/h3-7,15H,1-2H3

$$$$
2060360
  Marvin  11101114202D          

 11 12  0  0  0  0            999 V2000
    1.1270   -2.5070    0.0000 C   0  0  0  0  0  0  0  0  0  0  0  0
    0.3020   -2.5070    0.0000 C   0  0  0  0  0  0  0  0  0  0  0  0
    0.0470   -1.7224    0.0000 N   0  0  0  0  0  0  0  0  0  0  0  0
    0.7145   -1.2375    0.0000 C   0  0  0  0  0  0  0  0  0  0  0  0
    1.3819   -1.7224    0.0000 C   0  0  0  0  0  0  0  0  0  0  0  0
    0.7145   -0.4125    0.0000 C   0  0  0  0  0  0  0  0  0  0  0  0
    0.0000    0.0000    0.0000 C   0  0  0  0  0  0  0  0  0  0  0  0
    0.0000    0.8250    0.0000 C   0  0  0  0  0  0  0  0  0  0  0  0
    0.7145    1.2375    0.0000 C   0  0  0  0  0  0  0  0  0  0  0  0
    1.4289    0.8250    0.0000 N   0  0  0  0  0  0  0  0  0  0  0  0
    1.4289    0.0000    0.0000 C   0  0  0  0  0  0  0  0  0  0  0  0
  1  2  1  0  0  0  0
  2  3  1  0  0  0  0
  3  4  2  0  0  0  0
  4  5  1  0  0  0  0
  1  5  1  0  0  0  0
  4  6  1  0  0  0  0
  6  7  4  0  0  0  0
  7  8  4  0  0  0  0
  8  9  4  0  0  0  0
  9 10  4  0  0  0  0
 10 11  4  0  0  0  0
  6 11  4  0  0  0  0
M  END

> <ChembankId>
2060360

> <SMILES>
C1CN=C(C1)c2cccnc2

> <InChI>
1/C9H10N2/c1-3-8(7-10-5-1)9-4-2-6-11-9/h1,3,5,7H,2,4,6H2

$$$$
852250
  Marvin  11101114202D          

 12 13  0  0  0  0            999 V2000
    0.7145   -2.8875    0.0000 C   0  0  0  0  0  0  0  0  0  0  0  0
    0.0000   -2.4750    0.0000 C   0  0  0  0  0  0  0  0  0  0  0  0
    0.0000   -1.6500    0.0000 C   0  0  0  0  0  0  0  0  0  0  0  0
    0.7145   -1.2375    0.0000 C   0  0  0  0  0  0  0  0  0  0  0  0
    1.4289   -1.6500    0.0000 N   0  0  0  0  0  0  0  0  0  0  0  0
    1.4289   -2.4750    0.0000 C   0  0  0  0  0  0  0  0  0  0  0  0
    0.7145   -0.4125    0.0000 C   0  0  0  0  0  0  0  0  0  0  0  0
    0.0000    0.0000    0.0000 C   0  0  0  0  0  0  0  0  0  0  0  0
    0.0000    0.8250    0.0000 C   0  0  0  0  0  0  0  0  0  0  0  0
    0.7145    1.2375    0.0000 C   0  0  0  0  0  0  0  0  0  0  0  0
    1.4289    0.8250    0.0000 N   0  0  0  0  0  0  0  0  0  0  0  0
    1.4289   -0.0000    0.0000 C   0  0  0  0  0  0  0  0  0  0  0  0
  1  2  1  0  0  0  0
  2  3  1  0  0  0  0
  3  4  1  0  0  0  0
  4  5  1  0  0  0  0
  5  6  1  0  0  0  0
  1  6  1  0  0  0  0
  4  7  1  0  0  0  0
  7  8  4  0  0  0  0
  8  9  4  0  0  0  0
  9 10  4  0  0  0  0
 10 11  4  0  0  0  0
 11 12  4  0  0  0  0
  7 12  4  0  0  0  0
M  END

> <ChembankId>
852250

> <SMILES>
C1CCC(NC1)c2cccnc2

> <InChI>
1/C10H14N2/c1-2-7-12-10(5-1)9-4-3-6-11-8-9/h3-4,6,8,10,12H,1-2,5,7H2

$$$$
3172862
  Marvin  11101114202D          

 14 16  0  0  1  0            999 V2000
   -1.4163   -1.7164    0.0000 O   0  0  0  0  0  0  0  0  0  0  0  0
   -0.7850   -1.1854    0.0000 C   0  0  0  0  0  0  0  0  0  0  0  0
   -0.9291   -0.3731    0.0000 C   0  0  0  0  0  0  0  0  0  0  0  0
   -0.2977    0.1579    0.0000 C   0  0  0  0  0  0  0  0  0  0  0  0
    0.4778   -0.1234    0.0000 C   0  0  0  0  0  0  0  0  0  0  0  0
    0.6220   -0.9357    0.0000 C   0  0  0  0  0  0  0  0  0  0  0  0
    1.5820   -0.9250    0.0000 C   0  0  0  0  0  0  0  0  0  0  0  0
    1.6290   -1.9119    0.0000 C   0  0  0  0  0  0  0  0  0  0  0  0
    0.8127   -2.0914    0.0000 N   0  0  0  0  0  0  0  0  0  0  0  0
    1.2248   -1.5105    0.0000 C   0  0  0  0  0  0  0  0  0  0  0  0
    1.1634   -0.5574    0.0000 C   0  0  1  0  0  0  0  0  0  0  0  0
    1.7132   -0.1214    0.0000 C   0  0  0  0  0  0  0  0  0  0  0  0
    0.2444   -0.5581    0.0000 C   0  0  0  0  0  0  0  0  0  0  0  0
   -0.0094   -1.4667    0.0000 N   0  0  0  0  0  0  0  0  0  0  0  0
  1  2  2  0  0  0  0
  2  3  4  0  0  0  0
  3  4  4  0  0  0  0
  4  5  4  0  0  0  0
  5  6  4  0  0  0  0
  6  7  1  0  0  0  0
  7  8  1  0  0  0  0
  8  9  1  0  0  0  0
  9 10  1  0  0  0  0
 10 11  1  0  0  0  0
 11 12  1  0  0  0  0
  7 12  1  0  0  0  0
 11 13  1  6  0  0  0
 13 14  1  0  0  0  0
  6 14  4  0  0  0  0
  2 14  4  0  0  0  0
M  END

> <ChembankId>
3172862

> <SMILES>
O=c1cccc2C3CNC[C@@H](C3)Cn21

> <InChI>
1/C11H14N2O/c14-11-3-1-2-10-9-4-8(5-12-6-9)7-13(10)11/h1-3,8-9,12H,4-7H2

$$$$
1084508
  Marvin  11101114202D          

 26 29  0  0  0  0            999 V2000
   -1.8903   -4.3914    0.0000 C   0  0  0  0  0  0  0  0  0  0  0  0
   -1.6203   -3.6118    0.0000 O   0  0  0  0  0  0  0  0  0  0  0  0
   -0.8101   -3.4559    0.0000 C   0  0  0  0  0  0  0  0  0  0  0  0
   -0.5401   -2.6764    0.0000 C   0  0  0  0  0  0  0  0  0  0  0  0
    0.2700   -2.5204    0.0000 C   0  0  0  0  0  0  0  0  0  0  0  0
    0.8101   -3.1441    0.0000 C   0  0  0  0  0  0  0  0  0  0  0  0
    1.6203   -2.9882    0.0000 C   0  0  0  0  0  0  0  0  0  0  0  0
    2.1604   -3.6118    0.0000 C   0  0  0  0  0  0  0  0  0  0  0  0
    2.9705   -3.4559    0.0000 C   0  0  0  0  0  0  0  0  0  0  0  0
    3.2405   -2.6764    0.0000 C   0  0  0  0  0  0  0  0  0  0  0  0
    4.0507   -2.5204    0.0000 C   0  0  0  0  0  0  0  0  0  0  0  0
    4.3207   -1.7409    0.0000 O   0  0  0  0  0  0  0  0  0  0  0  0
    5.1308   -1.5850    0.0000 C   0  0  0  0  0  0  0  0  0  0  0  0
    4.5908   -3.1441    0.0000 C   0  0  0  0  0  0  0  0  0  0  0  0
    5.4009   -2.9882    0.0000 O   0  0  0  0  0  0  0  0  0  0  0  0
    5.6709   -2.2086    0.0000 C   0  0  0  0  0  0  0  0  0  0  0  0
    4.3207   -3.9236    0.0000 C   0  0  0  0  0  0  0  0  0  0  0  0
    3.5106   -4.0796    0.0000 C   0  0  0  0  0  0  0  0  0  0  0  0
    3.2405   -4.8591    0.0000 C   0  0  0  0  0  0  0  0  0  0  0  0
    2.4304   -5.0150    0.0000 C   0  0  0  0  0  0  0  0  0  0  0  0
    1.8903   -4.3914    0.0000 N   0  3  0  0  0  0  0  0  0  0  0  0
    1.0802   -4.5473    0.0000 C   0  0  0  0  0  0  0  0  0  0  0  0
    0.5401   -3.9236    0.0000 C   0  0  0  0  0  0  0  0  0  0  0  0
   -0.2700   -4.0796    0.0000 C   0  0  0  0  0  0  0  0  0  0  0  0
   -0.5401   -4.8591    0.0000 O   0  0  0  0  0  0  0  0  0  0  0  0
   -1.3502   -5.0150    0.0000 C   0  0  0  0  0  0  0  0  0  0  0  0
  1  2  1  0  0  0  0
  2  3  1  0  0  0  0
  3  4  4  0  0  0  0
  4  5  4  0  0  0  0
  5  6  4  0  0  0  0
  6  7  4  0  0  0  0
  7  8  4  0  0  0  0
  8  9  1  0  0  0  0
  9 10  4  0  0  0  0
 10 11  4  0  0  0  0
 11 12  1  0  0  0  0
 12 13  1  0  0  0  0
 11 14  4  0  0  0  0
 14 15  1  0  0  0  0
 15 16  1  0  0  0  0
 14 17  4  0  0  0  0
 17 18  4  0  0  0  0
  9 18  4  0  0  0  0
 18 19  1  0  0  0  0
 19 20  1  0  0  0  0
 20 21  1  0  0  0  0
  8 21  4  0  0  0  0
 21 22  4  0  0  0  0
 22 23  4  0  0  0  0
  6 23  4  0  0  0  0
 23 24  4  0  0  0  0
  3 24  4  0  0  0  0
 24 25  1  0  0  0  0
 25 26  1  0  0  0  0
M  CHG  1  21   1
M  END

> <ChembankId>
1084508

> <SMILES>
COc1ccc2cc3-c4cc(OC)c(OC)cc4CC[n+]3cc2c1OC

> <InChI>
1/C21H22NO4/c1-23-18-6-5-13-9-17-15-11-20(25-3)19(24-2)10-14(15)7-8-22(17)12-16(13)21(18)26-4/h5-6,9-12H,7-8H2,1-4H3/q+1

$$$$
4480
  Marvin  11101114202D          

 17 17  0  0  0  0            999 V2000
   -3.5724   -2.8875    0.0000 C   0  0  0  0  0  0  0  0  0  0  0  0
   -2.8579   -3.3000    0.0000 C   0  0  0  0  0  0  0  0  0  0  0  0
   -2.8579   -4.1250    0.0000 C   0  0  0  0  0  0  0  0  0  0  0  0
   -2.1434   -2.8875    0.0000 N   0  0  0  0  0  0  0  0  0  0  0  0
   -1.4289   -3.3000    0.0000 C   0  0  0  0  0  0  0  0  0  0  0  0
   -1.4289   -4.1250    0.0000 N   0  0  0  0  0  0  0  0  0  0  0  0
   -0.7145   -2.8875    0.0000 N   0  0  0  0  0  0  0  0  0  0  0  0
    0.0000   -3.3000    0.0000 C   0  0  0  0  0  0  0  0  0  0  0  0
    0.0000   -4.1250    0.0000 N   0  0  0  0  0  0  0  0  0  0  0  0
    0.7145   -2.8875    0.0000 N   0  0  0  0  0  0  0  0  0  0  0  0
    1.4289   -3.3000    0.0000 C   0  0  0  0  0  0  0  0  0  0  0  0
    2.1434   -2.8875    0.0000 C   0  0  0  0  0  0  0  0  0  0  0  0
    2.8579   -3.3000    0.0000 C   0  0  0  0  0  0  0  0  0  0  0  0
    2.8579   -4.1250    0.0000 C   0  0  0  0  0  0  0  0  0  0  0  0
    3.5724   -4.5375    0.0000 Cl  0  0  0  0  0  0  0  0  0  0  0  0
    2.1434   -4.5375    0.0000 C   0  0  0  0  0  0  0  0  0  0  0  0
    1.4289   -4.1250    0.0000 C   0  0  0  0  0  0  0  0  0  0  0  0
  1  2  1  0  0  0  0
  2  3  1  0  0  0  0
  2  4  1  0  0  0  0
  4  5  1  0  0  0  0
  5  6  2  0  0  0  0
  5  7  1  0  0  0  0
  7  8  1  0  0  0  0
  8  9  2  0  0  0  0
  8 10  1  0  0  0  0
 10 11  1  0  0  0  0
 11 12  4  0  0  0  0
 12 13  4  0  0  0  0
 13 14  4  0  0  0  0
 14 15  1  0  0  0  0
 14 16  4  0  0  0  0
 16 17  4  0  0  0  0
 11 17  4  0  0  0  0
M  END

> <ChembankId>
4480

> <SMILES>
CC(C)NC(=N)NC(=N)Nc1ccc(Cl)cc1

> <InChI>
1/C11H16ClN5/c1-7(2)15-10(13)17-11(14)16-9-5-3-8(12)4-6-9/h3-7H,1-2H3,(H5,13,14,15,16,17)

$$$$
3202
  Marvin  11101114202D          

 28 30  0  0  0  0            999 V2000
   -3.5724   -2.8875    0.0000 C   0  0  0  0  0  0  0  0  0  0  0  0
   -2.8579   -2.4750    0.0000 O   0  0  0  0  0  0  0  0  0  0  0  0
   -2.8579   -1.6500    0.0000 C   0  0  0  0  0  0  0  0  0  0  0  0
   -3.5724   -1.2375    0.0000 C   0  0  0  0  0  0  0  0  0  0  0  0
   -3.5724   -0.4125    0.0000 C   0  0  0  0  0  0  0  0  0  0  0  0
   -2.8579    0.0000    0.0000 C   0  0  0  0  0  0  0  0  0  0  0  0
   -2.1434   -0.4125    0.0000 C   0  0  0  0  0  0  0  0  0  0  0  0
   -2.1434   -1.2375    0.0000 C   0  0  0  0  0  0  0  0  0  0  0  0
   -1.4289   -1.6500    0.0000 N   0  0  0  0  0  0  0  0  0  0  0  0
   -0.7145   -1.2375    0.0000 C   0  0  0  0  0  0  0  0  0  0  0  0
    0.0000   -1.6500    0.0000 C   0  0  0  0  0  0  0  0  0  0  0  0
    0.0000   -2.4750    0.0000 N   0  0  0  0  0  0  0  0  0  0  0  0
    0.7145   -2.8875    0.0000 C   0  0  0  0  0  0  0  0  0  0  0  0
    1.4289   -2.4750    0.0000 C   0  0  0  0  0  0  0  0  0  0  0  0
    2.1434   -2.8875    0.0000 C   0  0  0  0  0  0  0  0  0  0  0  0
    2.8579   -2.4750    0.0000 N   0  0  0  0  0  0  0  0  0  0  0  0
    3.5724   -2.8875    0.0000 C   0  0  0  0  0  0  0  0  0  0  0  0
    4.2868   -2.4750    0.0000 C   0  0  0  0  0  0  0  0  0  0  0  0
    5.0013   -2.8875    0.0000 C   0  0  0  0  0  0  0  0  0  0  0  0
    5.7158   -2.4750    0.0000 O   0  0  0  0  0  0  0  0  0  0  0  0
    5.0013   -3.7125    0.0000 N   0  0  0  0  0  0  0  0  0  0  0  0
    5.7158   -4.1250    0.0000 C   0  0  0  0  0  0  0  0  0  0  0  0
    4.2868   -4.1250    0.0000 C   0  0  0  0  0  0  0  0  0  0  0  0
    4.2868   -4.9500    0.0000 O   0  0  0  0  0  0  0  0  0  0  0  0
    3.5724   -3.7125    0.0000 N   0  0  0  0  0  0  0  0  0  0  0  0
    2.8579   -4.1250    0.0000 C   0  0  0  0  0  0  0  0  0  0  0  0
   -0.7145   -2.8875    0.0000 C   0  0  0  0  0  0  0  0  0  0  0  0
   -1.4289   -2.4750    0.0000 C   0  0  0  0  0  0  0  0  0  0  0  0
  1  2  1  0  0  0  0
  2  3  1  0  0  0  0
  3  4  4  0  0  0  0
  4  5  4  0  0  0  0
  5  6  4  0  0  0  0
  6  7  4  0  0  0  0
  7  8  4  0  0  0  0
  3  8  4  0  0  0  0
  8  9  1  0  0  0  0
  9 10  1  0  0  0  0
 10 11  1  0  0  0  0
 11 12  1  0  0  0  0
 12 13  1  0  0  0  0
 13 14  1  0  0  0  0
 14 15  1  0  0  0  0
 15 16  1  0  0  0  0
 16 17  1  0  0  0  0
 17 18  4  0  0  0  0
 18 19  4  0  0  0  0
 19 20  2  0  0  0  0
 19 21  4  0  0  0  0
 21 22  1  0  0  0  0
 21 23  4  0  0  0  0
 23 24  2  0  0  0  0
 23 25  4  0  0  0  0
 17 25  4  0  0  0  0
 25 26  1  0  0  0  0
 12 27  1  0  0  0  0
 27 28  1  0  0  0  0
  9 28  1  0  0  0  0
M  END

> <ChembankId>
3202

> <SMILES>
COc1ccccc1N2CCN(CCCNc3cc(=O)n(C)c(=O)n3C)CC2

> <InChI>
1/C20H29N5O3/c1-22-18(15-19(26)23(2)20(22)27)21-9-6-10-24-11-13-25(14-12-24)16-7-4-5-8-17(16)28-3/h4-5,7-8,15,21H,6,9-14H2,1-3H3

$$$$
1898
  Marvin  11101114202D          

  8  7  0  0  0  0            999 V2000
   -0.1914    0.7145    0.0000 O   0  0  0  0  0  0  0  0  0  0  0  0
    0.5230    1.1270    0.0000 C   0  0  0  0  0  0  0  0  0  0  0  0
    0.5230    1.9520    0.0000 O   0  0  0  0  0  0  0  0  0  0  0  0
    1.2375    0.7145    0.0000 C   0  0  0  0  0  0  0  0  0  0  0  0
    1.9520    1.1270    0.0000 C   0  0  0  0  0  0  0  0  0  0  0  0
    2.6664    0.7145    0.0000 N   0  3  0  0  0  0  0  0  0  0  0  0
    3.3809    1.1270    0.0000 O   0  0  0  0  0  0  0  0  0  0  0  0
    2.6664   -0.1105    0.0000 O   0  5  0  0  0  0  0  0  0  0  0  0
  1  2  1  0  0  0  0
  2  3  2  0  0  0  0
  2  4  1  0  0  0  0
  4  5  1  0  0  0  0
  5  6  1  0  0  0  0
  6  7  2  0  0  0  0
  6  8  1  0  0  0  0
M  CHG  2   6   1   8  -1
M  END

> <ChembankId>
1898

> <SMILES>
OC(=O)CC[N+](=O)[O-]

> <InChI>
1/C3H5NO4/c5-3(6)1-2-4(7)8/h1-2H2,(H,5,6)

$$$$
2060476
  Marvin  11101114202D          

 18 20  0  0  1  0            999 V2000
   -0.1007   -0.1350    0.0000 C   0  0  0  0  0  0  0  0  0  0  0  0
    0.5878   -0.5895    0.0000 C   0  0  1  0  0  0  0  0  0  0  0  0
    1.3602   -0.2996    0.0000 C   0  0  2  0  0  0  0  0  0  0  0  0
    1.5438    0.5047    0.0000 C   0  0  0  0  0  0  0  0  0  0  0  0
    2.2871    0.8627    0.0000 C   0  0  0  0  0  0  0  0  0  0  0  0
    3.0304    0.5047    0.0000 C   0  0  0  0  0  0  0  0  0  0  0  0
    3.2140   -0.2996    0.0000 C   0  0  0  0  0  0  0  0  0  0  0  0
    2.6996   -0.9446    0.0000 C   0  0  1  0  0  0  0  0  0  0  0  0
    1.8746   -0.9446    0.0000 C   0  0  1  0  0  0  0  0  0  0  0  0
    1.4201   -1.6331    0.0000 O   0  0  0  0  0  0  0  0  0  0  0  0
    0.6248   -1.4137    0.0000 C   0  0  0  0  0  0  0  0  0  0  0  0
   -0.0202   -1.9280    0.0000 O   0  0  0  0  0  0  0  0  0  0  0  0
    3.1541   -1.6331    0.0000 C   0  0  0  0  0  0  0  0  0  0  0  0
    3.9493   -1.4137    0.0000 C   0  0  0  0  0  0  0  0  0  0  0  0
    3.9864   -0.5895    0.0000 C   0  0  0  0  0  0  0  0  0  0  0  0
    4.6749   -0.1350    0.0000 O   0  0  0  0  0  0  0  0  0  0  0  0
    2.8642   -2.4055    0.0000 C   0  0  0  0  0  0  0  0  0  0  0  0
    3.6754    1.0191    0.0000 C   0  0  0  0  0  0  0  0  0  0  0  0
  2  1  1  1  0  0  0
  2  3  1  0  0  0  0
  3  4  1  6  0  0  0
  4  5  1  0  0  0  0
  5  6  1  0  0  0  0
  6  7  2  0  0  0  0
  7  8  1  0  0  0  0
  8  9  1  0  0  0  0
  3  9  1  0  0  0  0
  9 10  1  1  0  0  0
 10 11  1  0  0  0  0
  2 11  1  0  0  0  0
 11 12  2  0  0  0  0
  8 13  1  6  0  0  0
 13 14  2  0  0  0  0
 14 15  1  0  0  0  0
  7 15  1  0  0  0  0
 15 16  2  0  0  0  0
 13 17  1  0  0  0  0
  6 18  1  0  0  0  0
M  END

> <ChembankId>
2060476

> <SMILES>
C[C@H]1[C@@H]2CCC(=C3[C@@H]([C@H]2OC1=O)C(=CC3=O)C)C

> <InChI>
1/C15H18O3/c1-7-4-5-10-9(3)15(17)18-14(10)13-8(2)6-11(16)12(7)13/h6,9-10,13-14H,4-5H2,1-3H3

$$$$
3173628
  Marvin  11101114202D          

 21 20  0  0  0  0            999 V2000
    1.0696    0.6000    0.0000 C   0  0  0  0  0  0  0  0  0  0  0  0
    0.3552    0.1875    0.0000 N   0  0  0  0  0  0  0  0  0  0  0  0
    0.3552   -0.6375    0.0000 C   0  0  0  0  0  0  0  0  0  0  0  0
    1.1676   -0.4942    0.0000 C   0  0  0  0  0  0  0  0  0  0  0  0
    0.6373   -1.4127    0.0000 C   0  0  0  0  0  0  0  0  0  0  0  0
   -0.3593   -1.0500    0.0000 C   0  0  0  0  0  0  0  0  0  0  0  0
   -1.0738   -0.6375    0.0000 C   0  0  0  0  0  0  0  0  0  0  0  0
   -1.0738    0.1875    0.0000 C   0  0  0  0  0  0  0  0  0  0  0  0
   -0.3593    0.6000    0.0000 C   0  0  0  0  0  0  0  0  0  0  0  0
   -0.7466    1.3284    0.0000 C   0  0  0  0  0  0  0  0  0  0  0  0
    0.0280    1.3284    0.0000 C   0  0  0  0  0  0  0  0  0  0  0  0
    5.3146    1.0313    0.0000 O   0  0  0  0  0  0  0  0  0  0  0  0
    5.3146    0.2063    0.0000 C   0  0  0  0  0  0  0  0  0  0  0  0
    4.6001   -0.2062    0.0000 C   0  0  0  0  0  0  0  0  0  0  0  0
    4.6001   -1.0312    0.0000 O   0  0  0  0  0  0  0  0  0  0  0  0
    3.8857    0.2063    0.0000 C   0  0  0  0  0  0  0  0  0  0  0  0
    3.1712   -0.2062    0.0000 O   0  0  0  0  0  0  0  0  0  0  0  0
    3.8857    1.0313    0.0000 O   0  0  0  0  0  0  0  0  0  0  0  0
    6.0291   -0.2063    0.0000 C   0  0  0  0  0  0  0  0  0  0  0  0
    6.7435    0.2062    0.0000 O   0  0  0  0  0  0  0  0  0  0  0  0
    6.0291   -1.0313    0.0000 O   0  0  0  0  0  0  0  0  0  0  0  0
  1  2  1  0  0  0  0
  2  3  1  0  0  0  0
  3  4  1  0  0  0  0
  3  5  1  0  0  0  0
  3  6  1  0  0  0  0
  6  7  1  0  0  0  0
  7  8  1  0  0  0  0
  8  9  1  0  0  0  0
  2  9  1  0  0  0  0
  9 10  1  0  0  0  0
  9 11  1  0  0  0  0
 12 13  1  0  0  0  0
 13 14  1  0  0  0  0
 14 15  1  0  0  0  0
 14 16  1  0  0  0  0
 16 17  2  0  0  0  0
 16 18  1  0  0  0  0
 13 19  1  0  0  0  0
 19 20  2  0  0  0  0
 19 21  1  0  0  0  0
M  END

> <ChembankId>
3173628

> <SMILES>
CN1C(C)(C)CCCC1(C)C.OC(C(O)C(=O)O)C(=O)O

> <InChI>
1/C10H21N.C4H6O6/c1-9(2)7-6-8-10(3,4)11(9)5;5-1(3(7)8)2(6)4(9)10/h6-8H2,1-5H3;1-2,5-6H,(H,7,8)(H,9,10)

$$$$
3100
  Marvin  11101114202D          

 16 18  0  0  0  0            999 V2000
    1.4289    2.4750    0.0000 C   0  0  0  0  0  0  0  0  0  0  0  0
    2.1434    2.0625    0.0000 O   0  0  0  0  0  0  0  0  0  0  0  0
    2.1434    1.2375    0.0000 C   0  0  0  0  0  0  0  0  0  0  0  0
    2.8579    0.8250    0.0000 C   0  0  0  0  0  0  0  0  0  0  0  0
    3.6425    1.0799    0.0000 O   0  0  0  0  0  0  0  0  0  0  0  0
    4.1274    0.4125    0.0000 C   0  0  0  0  0  0  0  0  0  0  0  0
    3.6425   -0.2549    0.0000 O   0  0  0  0  0  0  0  0  0  0  0  0
    2.8579    0.0000    0.0000 C   0  0  0  0  0  0  0  0  0  0  0  0
    2.1434   -0.4125    0.0000 C   0  0  0  0  0  0  0  0  0  0  0  0
    1.4289    0.0000    0.0000 C   0  0  0  0  0  0  0  0  0  0  0  0
    0.7145   -0.4125    0.0000 C   0  0  0  0  0  0  0  0  0  0  0  0
    0.0000    0.0000    0.0000 C   0  0  0  0  0  0  0  0  0  0  0  0
    0.0000    0.8250    0.0000 N   0  0  0  0  0  0  0  0  0  0  0  0
   -0.7145    1.2375    0.0000 C   0  0  0  0  0  0  0  0  0  0  0  0
    0.7145    1.2375    0.0000 C   0  0  0  0  0  0  0  0  0  0  0  0
    1.4289    0.8250    0.0000 C   0  0  0  0  0  0  0  0  0  0  0  0
  1  2  1  0  0  0  0
  2  3  1  0  0  0  0
  3  4  4  0  0  0  0
  4  5  1  0  0  0  0
  5  6  1  0  0  0  0
  6  7  1  0  0  0  0
  7  8  1  0  0  0  0
  4  8  4  0  0  0  0
  8  9  4  0  0  0  0
  9 10  4  0  0  0  0
 10 11  1  0  0  0  0
 11 12  1  0  0  0  0
 12 13  1  0  0  0  0
 13 14  1  0  0  0  0
 13 15  1  0  0  0  0
 15 16  1  0  0  0  0
  3 16  4  0  0  0  0
 10 16  4  0  0  0  0
M  END

> <ChembankId>
3100

> <SMILES>
COc1c2OCOc2cc3CCN(C)Cc13

> <InChI>
1/C12H15NO3/c1-13-4-3-8-5-10-12(16-7-15-10)11(14-2)9(8)6-13/h5H,3-4,6-7H2,1-2H3

$$$$
1326779
  Marvin  11101114202D          

 13 13  0  0  0  0            999 V2000
   -2.8579   -1.6500    0.0000 C   0  0  0  0  0  0  0  0  0  0  0  0
   -2.1434   -2.0625    0.0000 C   0  0  0  0  0  0  0  0  0  0  0  0
   -1.4289   -1.6500    0.0000 N   0  0  0  0  0  0  0  0  0  0  0  0
   -0.7145   -2.0625    0.0000 C   0  0  0  0  0  0  0  0  0  0  0  0
    0.0000   -1.6500    0.0000 C   0  0  0  0  0  0  0  0  0  0  0  0
    0.0000   -0.8250    0.0000 O   0  0  0  0  0  0  0  0  0  0  0  0
    0.7145   -2.0625    0.0000 C   0  0  0  0  0  0  0  0  0  0  0  0
    1.4289   -1.6500    0.0000 C   0  0  0  0  0  0  0  0  0  0  0  0
    2.1434   -2.0625    0.0000 C   0  0  0  0  0  0  0  0  0  0  0  0
    2.1434   -2.8875    0.0000 C   0  0  0  0  0  0  0  0  0  0  0  0
    1.4289   -3.3000    0.0000 C   0  0  0  0  0  0  0  0  0  0  0  0
    1.4289   -4.1250    0.0000 O   0  0  0  0  0  0  0  0  0  0  0  0
    0.7145   -2.8875    0.0000 C   0  0  0  0  0  0  0  0  0  0  0  0
  1  2  1  0  0  0  0
  2  3  1  0  0  0  0
  3  4  1  0  0  0  0
  4  5  1  0  0  0  0
  5  6  1  0  0  0  0
  5  7  1  0  0  0  0
  7  8  4  0  0  0  0
  8  9  4  0  0  0  0
  9 10  4  0  0  0  0
 10 11  4  0  0  0  0
 11 12  1  0  0  0  0
 11 13  4  0  0  0  0
  7 13  4  0  0  0  0
M  END

> <ChembankId>
1326779

> <SMILES>
CCNCC(O)c1cccc(O)c1

> <InChI>
1/C10H15NO2/c1-2-11-7-10(13)8-4-3-5-9(12)6-8/h3-6,10-13H,2,7H2,1H3

$$$$
1014994
  Marvin  11101114202D          

 13 14  0  0  0  0            999 V2000
   -0.1781   -3.1062    0.0000 C   0  0  0  0  0  0  0  0  0  0  0  0
    0.0768   -2.3215    0.0000 N   0  0  0  0  0  0  0  0  0  0  0  0
   -0.4752   -1.7084    0.0000 C   0  0  0  0  0  0  0  0  0  0  0  0
    0.8838   -2.1500    0.0000 C   0  0  0  0  0  0  0  0  0  0  0  0
    1.1387   -1.3654    0.0000 C   0  0  0  0  0  0  0  0  0  0  0  0
    0.6538   -0.6979    0.0000 C   0  0  0  0  0  0  0  0  0  0  0  0
    1.1387   -0.0305    0.0000 N   0  0  0  0  0  0  0  0  0  0  0  0
    1.9233   -0.2854    0.0000 C   0  0  0  0  0  0  0  0  0  0  0  0
    2.6378    0.1271    0.0000 C   0  0  0  0  0  0  0  0  0  0  0  0
    3.3523   -0.2854    0.0000 C   0  0  0  0  0  0  0  0  0  0  0  0
    3.3523   -1.1104    0.0000 C   0  0  0  0  0  0  0  0  0  0  0  0
    2.6378   -1.5229    0.0000 C   0  0  0  0  0  0  0  0  0  0  0  0
    1.9233   -1.1104    0.0000 C   0  0  0  0  0  0  0  0  0  0  0  0
  1  2  1  0  0  0  0
  2  3  1  0  0  0  0
  2  4  1  0  0  0  0
  4  5  1  0  0  0  0
  5  6  4  0  0  0  0
  6  7  4  0  0  0  0
  7  8  4  0  0  0  0
  8  9  4  0  0  0  0
  9 10  4  0  0  0  0
 10 11  4  0  0  0  0
 11 12  4  0  0  0  0
 12 13  4  0  0  0  0
  5 13  4  0  0  0  0
  8 13  4  0  0  0  0
M  STY  1   1 DAT
M  SAL   1  1   7
M  SDT   1 MRV_IMPLICIT_H                                        
M  SDD   1     0.0000    0.0000    DR    ALL  0       0  
M  SED   1 IMPL_H1
M  END

> <ChembankId>
1014994

> <SMILES>
CN(C)Cc1c[nH]c2ccccc12

> <InChI>
1/C11H14N2/c1-13(2)8-9-7-12-11-6-4-3-5-10(9)11/h3-7,12H,8H2,1-2H3

$$$$
529
  Marvin  11101114202D          

 28 30  0  0  0  0            999 V2000
   -0.7145   -7.8375    0.0000 N   0  0  0  0  0  0  0  0  0  0  0  0
   -1.4289   -7.4250    0.0000 C   0  0  0  0  0  0  0  0  0  0  0  0
   -2.1434   -7.8375    0.0000 C   0  0  0  0  0  0  0  0  0  0  0  0
   -2.8579   -7.4250    0.0000 C   0  0  0  0  0  0  0  0  0  0  0  0
   -2.8579   -6.6000    0.0000 C   0  0  0  0  0  0  0  0  0  0  0  0
   -2.1434   -6.1875    0.0000 C   0  0  0  0  0  0  0  0  0  0  0  0
   -1.4289   -6.6000    0.0000 C   0  0  0  0  0  0  0  0  0  0  0  0
   -0.7145   -6.1875    0.0000 N   0  0  0  0  0  0  0  0  0  0  0  0
   -0.7145   -5.3625    0.0000 C   0  0  0  0  0  0  0  0  0  0  0  0
   -1.4289   -4.9500    0.0000 O   0  0  0  0  0  0  0  0  0  0  0  0
    0.0000   -4.9500    0.0000 C   0  0  0  0  0  0  0  0  0  0  0  0
    0.0000   -4.1250    0.0000 C   0  0  0  0  0  0  0  0  0  0  0  0
    0.7145   -3.7125    0.0000 C   0  0  0  0  0  0  0  0  0  0  0  0
    1.4289   -4.1250    0.0000 C   0  0  0  0  0  0  0  0  0  0  0  0
    2.1434   -3.7125    0.0000 C   0  0  0  0  0  0  0  0  0  0  0  0
    2.8579   -4.1250    0.0000 N   0  0  0  0  0  0  0  0  0  0  0  0
    3.5724   -3.7125    0.0000 C   0  0  0  0  0  0  0  0  0  0  0  0
    3.5724   -2.8875    0.0000 O   0  0  0  0  0  0  0  0  0  0  0  0
    4.2868   -4.1250    0.0000 O   0  0  0  0  0  0  0  0  0  0  0  0
    5.0013   -3.7125    0.0000 C   0  0  0  0  0  0  0  0  0  0  0  0
    5.7158   -4.1250    0.0000 C   0  0  0  0  0  0  0  0  0  0  0  0
    6.4302   -3.7125    0.0000 C   0  0  0  0  0  0  0  0  0  0  0  0
    7.1447   -4.1250    0.0000 C   0  0  0  0  0  0  0  0  0  0  0  0
    7.1447   -4.9500    0.0000 C   0  0  0  0  0  0  0  0  0  0  0  0
    6.4302   -5.3625    0.0000 N   0  0  0  0  0  0  0  0  0  0  0  0
    5.7158   -4.9500    0.0000 C   0  0  0  0  0  0  0  0  0  0  0  0
    1.4289   -4.9500    0.0000 C   0  0  0  0  0  0  0  0  0  0  0  0
    0.7145   -5.3625    0.0000 C   0  0  0  0  0  0  0  0  0  0  0  0
  1  2  1  0  0  0  0
  2  3  4  0  0  0  0
  3  4  4  0  0  0  0
  4  5  4  0  0  0  0
  5  6  4  0  0  0  0
  6  7  4  0  0  0  0
  2  7  4  0  0  0  0
  7  8  1  0  0  0  0
  8  9  1  0  0  0  0
  9 10  2  0  0  0  0
  9 11  1  0  0  0  0
 11 12  4  0  0  0  0
 12 13  4  0  0  0  0
 13 14  4  0  0  0  0
 14 15  1  0  0  0  0
 15 16  1  0  0  0  0
 16 17  1  0  0  0  0
 17 18  2  0  0  0  0
 17 19  1  0  0  0  0
 19 20  1  0  0  0  0
 20 21  1  0  0  0  0
 21 22  4  0  0  0  0
 22 23  4  0  0  0  0
 23 24  4  0  0  0  0
 24 25  4  0  0  0  0
 25 26  4  0  0  0  0
 21 26  4  0  0  0  0
 14 27  4  0  0  0  0
 27 28  4  0  0  0  0
 11 28  4  0  0  0  0
M  END

> <ChembankId>
529

> <SMILES>
Nc1ccccc1NC(=O)c2ccc(CNC(=O)OCc3cccnc3)cc2

> <InChI>
1/C21H20N4O3/c22-18-5-1-2-6-19(18)25-20(26)17-9-7-15(8-10-17)13-24-21(27)28-14-16-4-3-11-23-12-16/h1-12H,13-14,22H2,(H,24,27)(H,25,26)

$$$$
2121
  Marvin  11101114202D          

 21 23  0  0  0  0            999 V2000
   -2.1434    1.2375    0.0000 O   0  0  0  0  0  0  0  0  0  0  0  0
   -1.4289    0.8250    0.0000 C   0  0  0  0  0  0  0  0  0  0  0  0
   -0.7145    1.2375    0.0000 C   0  0  0  0  0  0  0  0  0  0  0  0
    0.0000    0.8250    0.0000 C   0  0  0  0  0  0  0  0  0  0  0  0
    0.0000    0.0000    0.0000 C   0  0  0  0  0  0  0  0  0  0  0  0
   -0.7145   -0.4125    0.0000 C   0  0  0  0  0  0  0  0  0  0  0  0
   -1.4289   -0.0000    0.0000 C   0  0  0  0  0  0  0  0  0  0  0  0
    0.7145   -0.4125    0.0000 C   0  0  0  0  0  0  0  0  0  0  0  0
    1.4289    0.0000    0.0000 O   0  0  0  0  0  0  0  0  0  0  0  0
    2.1434   -0.4125    0.0000 C   0  0  0  0  0  0  0  0  0  0  0  0
    2.8579    0.0000    0.0000 C   0  0  0  0  0  0  0  0  0  0  0  0
    3.5724   -0.4125    0.0000 C   0  0  0  0  0  0  0  0  0  0  0  0
    4.2868   -0.0000    0.0000 O   0  0  0  0  0  0  0  0  0  0  0  0
    3.5724   -1.2375    0.0000 C   0  0  0  0  0  0  0  0  0  0  0  0
    2.8579   -1.6500    0.0000 C   0  0  0  0  0  0  0  0  0  0  0  0
    2.8579   -2.4750    0.0000 O   0  0  0  0  0  0  0  0  0  0  0  0
    2.1434   -1.2375    0.0000 C   0  0  0  0  0  0  0  0  0  0  0  0
    1.4289   -1.6500    0.0000 C   0  0  0  0  0  0  0  0  0  0  0  0
    1.4289   -2.4750    0.0000 O   0  0  0  0  0  0  0  0  0  0  0  0
    0.7145   -1.2375    0.0000 C   0  0  0  0  0  0  0  0  0  0  0  0
    0.0000   -1.6500    0.0000 O   0  0  0  0  0  0  0  0  0  0  0  0
  1  2  1  0  0  0  0
  2  3  4  0  0  0  0
  3  4  4  0  0  0  0
  4  5  4  0  0  0  0
  5  6  4  0  0  0  0
  6  7  4  0  0  0  0
  2  7  4  0  0  0  0
  5  8  1  0  0  0  0
  8  9  4  0  0  0  0
  9 10  4  0  0  0  0
 10 11  4  0  0  0  0
 11 12  4  0  0  0  0
 12 13  1  0  0  0  0
 12 14  4  0  0  0  0
 14 15  4  0  0  0  0
 15 16  1  0  0  0  0
 15 17  4  0  0  0  0
 10 17  4  0  0  0  0
 17 18  4  0  0  0  0
 18 19  2  0  0  0  0
 18 20  4  0  0  0  0
  8 20  4  0  0  0  0
 20 21  1  0  0  0  0
M  END

> <ChembankId>
2121

> <SMILES>
Oc1ccc(cc1)c2oc3cc(O)cc(O)c3c(=O)c2O

> <InChI>
1/C15H10O6/c16-8-3-1-7(2-4-8)15-14(20)13(19)12-10(18)5-9(17)6-11(12)21-15/h1-6,16-18,20H

$$$$
3176281
  Marvin  11101114202D          

 21 22  0  0  0  0            999 V2000
   -2.1434    0.4125    0.0000 C   0  0  0  0  0  0  0  0  0  0  0  0
   -2.1434    1.2375    0.0000 O   0  0  0  0  0  0  0  0  0  0  0  0
   -1.4289    1.6500    0.0000 C   0  0  0  0  0  0  0  0  0  0  0  0
   -1.4289    2.4750    0.0000 C   0  0  0  0  0  0  0  0  0  0  0  0
   -0.7145    2.8875    0.0000 C   0  0  0  0  0  0  0  0  0  0  0  0
    0.0000    2.4750    0.0000 C   0  0  0  0  0  0  0  0  0  0  0  0
    0.7145    2.8875    0.0000 C   0  0  0  0  0  0  0  0  0  0  0  0
    1.4289    2.4750    0.0000 N   0  0  0  0  0  0  0  0  0  0  0  0
    2.1434    2.8875    0.0000 C   0  0  0  0  0  0  0  0  0  0  0  0
    2.1434    3.7125    0.0000 O   0  0  0  0  0  0  0  0  0  0  0  0
    2.8579    2.4750    0.0000 N   0  0  0  0  0  0  0  0  0  0  0  0
    3.5724    2.8875    0.0000 C   0  0  0  0  0  0  0  0  0  0  0  0
    3.6586    3.7080    0.0000 N   0  0  0  0  0  0  0  0  0  0  0  0
    4.4656    3.8795    0.0000 C   0  0  0  0  0  0  0  0  0  0  0  0
    4.8781    3.1650    0.0000 C   0  0  0  0  0  0  0  0  0  0  0  0
    4.3260    2.5519    0.0000 S   0  0  0  0  0  0  0  0  0  0  0  0
    5.6985    3.0788    0.0000 N   0  3  0  0  0  0  0  0  0  0  0  0
    6.1835    3.7462    0.0000 O   0  0  0  0  0  0  0  0  0  0  0  0
    6.0341    2.3251    0.0000 O   0  5  0  0  0  0  0  0  0  0  0  0
    0.0000    1.6500    0.0000 C   0  0  0  0  0  0  0  0  0  0  0  0
   -0.7145    1.2375    0.0000 C   0  0  0  0  0  0  0  0  0  0  0  0
  1  2  1  0  0  0  0
  2  3  1  0  0  0  0
  3  4  4  0  0  0  0
  4  5  4  0  0  0  0
  5  6  4  0  0  0  0
  6  7  1  0  0  0  0
  7  8  1  0  0  0  0
  8  9  1  0  0  0  0
  9 10  2  0  0  0  0
  9 11  1  0  0  0  0
 11 12  1  0  0  0  0
 12 13  4  0  0  0  0
 13 14  4  0  0  0  0
 14 15  4  0  0  0  0
 15 16  4  0  0  0  0
 12 16  4  0  0  0  0
 15 17  1  0  0  0  0
 17 18  2  0  0  0  0
 17 19  1  0  0  0  0
  6 20  4  0  0  0  0
 20 21  4  0  0  0  0
  3 21  4  0  0  0  0
M  CHG  2  17   1  19  -1
M  END

> <ChembankId>
3176281

> <SMILES>
COc1ccc(CNC(=O)Nc2ncc(s2)[N+](=O)[O-])cc1

> <InChI>
1/C12H12N4O4S/c1-20-9-4-2-8(3-5-9)6-13-11(17)15-12-14-7-10(21-12)16(18)19/h2-5,7H,6H2,1H3,(H2,13,14,15,17)

$$$$
2041
  Marvin  11101114202D          

 17 17  0  0  0  0            999 V2000
   -3.5724   -2.8875    0.0000 O   0  0  0  0  0  0  0  0  0  0  0  0
   -2.8579   -3.3000    0.0000 C   0  0  0  0  0  0  0  0  0  0  0  0
   -2.8579   -4.1250    0.0000 O   0  0  0  0  0  0  0  0  0  0  0  0
   -2.1434   -2.8875    0.0000 C   0  0  0  0  0  0  0  0  0  0  0  0
   -1.4289   -3.3000    0.0000 N   0  0  0  0  0  0  0  0  0  0  0  0
   -0.7145   -2.8875    0.0000 C   0  0  0  0  0  0  0  0  0  0  0  0
   -0.7145   -2.0625    0.0000 O   0  0  0  0  0  0  0  0  0  0  0  0
    0.0000   -3.3000    0.0000 C   0  0  0  0  0  0  0  0  0  0  0  0
    0.0000   -4.1250    0.0000 C   0  0  0  0  0  0  0  0  0  0  0  0
    0.7145   -4.5375    0.0000 S   0  0  0  0  0  0  0  0  0  0  0  0
    0.7145   -2.8875    0.0000 C   0  0  0  0  0  0  0  0  0  0  0  0
    1.4289   -3.3000    0.0000 C   0  0  0  0  0  0  0  0  0  0  0  0
    2.1434   -2.8875    0.0000 C   0  0  0  0  0  0  0  0  0  0  0  0
    2.8579   -3.3000    0.0000 C   0  0  0  0  0  0  0  0  0  0  0  0
    2.8579   -4.1250    0.0000 C   0  0  0  0  0  0  0  0  0  0  0  0
    2.1434   -4.5375    0.0000 C   0  0  0  0  0  0  0  0  0  0  0  0
    1.4289   -4.1250    0.0000 C   0  0  0  0  0  0  0  0  0  0  0  0
  1  2  1  0  0  0  0
  2  3  2  0  0  0  0
  2  4  1  0  0  0  0
  4  5  1  0  0  0  0
  5  6  1  0  0  0  0
  6  7  2  0  0  0  0
  6  8  1  0  0  0  0
  8  9  1  0  0  0  0
  9 10  1  0  0  0  0
  8 11  1  0  0  0  0
 11 12  1  0  0  0  0
 12 13  4  0  0  0  0
 13 14  4  0  0  0  0
 14 15  4  0  0  0  0
 15 16  4  0  0  0  0
 16 17  4  0  0  0  0
 12 17  4  0  0  0  0
M  END

> <ChembankId>
2041

> <SMILES>
OC(=O)CNC(=O)C(CS)Cc1ccccc1

> <InChI>
1/C12H15NO3S/c14-11(15)7-13-12(16)10(8-17)6-9-4-2-1-3-5-9/h1-5,10,17H,6-8H2,(H,13,16)(H,14,15)

$$$$
2217
  Marvin  11101114202D          

 21 22  0  0  0  0            999 V2000
    3.5724    0.4125    0.0000 C   0  0  0  0  0  0  0  0  0  0  0  0
    2.8579   -0.0000    0.0000 S   0  0  0  0  0  0  0  0  0  0  0  0
    2.4454    0.7145    0.0000 O   0  0  0  0  0  0  0  0  0  0  0  0
    3.2704   -0.7145    0.0000 O   0  0  0  0  0  0  0  0  0  0  0  0
    2.1434   -0.4125    0.0000 N   0  0  0  0  0  0  0  0  0  0  0  0
    2.1434   -1.2375    0.0000 C   0  0  0  0  0  0  0  0  0  0  0  0
    2.8579   -1.6500    0.0000 C   0  0  0  0  0  0  0  0  0  0  0  0
    2.8579   -2.4750    0.0000 C   0  0  0  0  0  0  0  0  0  0  0  0
    2.1434   -2.8875    0.0000 C   0  0  0  0  0  0  0  0  0  0  0  0
    1.4289   -2.4750    0.0000 C   0  0  0  0  0  0  0  0  0  0  0  0
    1.4289   -1.6500    0.0000 C   0  0  0  0  0  0  0  0  0  0  0  0
    0.7145   -1.2375    0.0000 O   0  0  0  0  0  0  0  0  0  0  0  0
    0.7145   -0.4125    0.0000 C   0  0  0  0  0  0  0  0  0  0  0  0
    0.0000    0.0000    0.0000 C   0  0  0  0  0  0  0  0  0  0  0  0
    0.0000    0.8250    0.0000 C   0  0  0  0  0  0  0  0  0  0  0  0
    0.7145    1.2375    0.0000 C   0  0  0  0  0  0  0  0  0  0  0  0
    1.4289    0.8250    0.0000 C   0  0  0  0  0  0  0  0  0  0  0  0
    1.4289    0.0000    0.0000 C   0  0  0  0  0  0  0  0  0  0  0  0
    2.1434   -3.7125    0.0000 N   0  3  0  0  0  0  0  0  0  0  0  0
    1.4289   -4.1250    0.0000 O   0  0  0  0  0  0  0  0  0  0  0  0
    2.8579   -4.1250    0.0000 O   0  5  0  0  0  0  0  0  0  0  0  0
  1  2  1  0  0  0  0
  2  3  2  0  0  0  0
  2  4  2  0  0  0  0
  2  5  1  0  0  0  0
  5  6  1  0  0  0  0
  6  7  4  0  0  0  0
  7  8  4  0  0  0  0
  8  9  4  0  0  0  0
  9 10  4  0  0  0  0
 10 11  4  0  0  0  0
  6 11  4  0  0  0  0
 11 12  1  0  0  0  0
 12 13  1  0  0  0  0
 13 14  1  0  0  0  0
 14 15  1  0  0  0  0
 15 16  1  0  0  0  0
 16 17  1  0  0  0  0
 17 18  1  0  0  0  0
 13 18  1  0  0  0  0
  9 19  1  0  0  0  0
 19 20  2  0  0  0  0
 19 21  1  0  0  0  0
M  CHG  2  19   1  21  -1
M  END

> <ChembankId>
2217

> <SMILES>
CS(=O)(=O)Nc1ccc(cc1OC2CCCCC2)[N+](=O)[O-]

> <InChI>
1/C13H18N2O5S/c1-21(18,19)14-12-8-7-10(15(16)17)9-13(12)20-11-5-3-2-4-6-11/h7-9,11,14H,2-6H2,1H3

$$$$
907370
  Marvin  11101114202D          

 30 30  0  0  0  0            999 V2000
   -7.1447   -4.9500    0.0000 C   0  0  0  0  0  0  0  0  0  0  0  0
   -6.4302   -4.5375    0.0000 C   0  0  0  0  0  0  0  0  0  0  0  0
   -5.7158   -4.9500    0.0000 C   0  0  0  0  0  0  0  0  0  0  0  0
   -5.0013   -4.5375    0.0000 C   0  0  0  0  0  0  0  0  0  0  0  0
   -4.2868   -4.9500    0.0000 C   0  0  0  0  0  0  0  0  0  0  0  0
   -3.5724   -4.5375    0.0000 N   0  0  0  0  0  0  0  0  0  0  0  0
   -3.5724   -3.7125    0.0000 C   0  0  0  0  0  0  0  0  0  0  0  0
   -4.2868   -3.3000    0.0000 C   0  0  0  0  0  0  0  0  0  0  0  0
   -4.2868   -2.4750    0.0000 C   0  0  0  0  0  0  0  0  0  0  0  0
   -5.0013   -2.0625    0.0000 C   0  0  0  0  0  0  0  0  0  0  0  0
   -5.0013   -1.2375    0.0000 C   0  0  0  0  0  0  0  0  0  0  0  0
   -2.8579   -4.9500    0.0000 C   0  0  0  0  0  0  0  0  0  0  0  0
   -2.8579   -5.7750    0.0000 O   0  0  0  0  0  0  0  0  0  0  0  0
   -2.1434   -4.5375    0.0000 C   0  0  0  0  0  0  0  0  0  0  0  0
   -2.1434   -3.7125    0.0000 C   0  0  0  0  0  0  0  0  0  0  0  0
   -1.4289   -3.3000    0.0000 C   0  0  0  0  0  0  0  0  0  0  0  0
   -1.4289   -2.4750    0.0000 C   0  0  0  0  0  0  0  0  0  0  0  0
   -2.1434   -2.0625    0.0000 O   0  0  0  0  0  0  0  0  0  0  0  0
   -0.7145   -2.0625    0.0000 O   0  0  0  0  0  0  0  0  0  0  0  0
   -1.4289   -4.9500    0.0000 N   0  0  0  0  0  0  0  0  0  0  0  0
   -0.7145   -4.5375    0.0000 C   0  0  0  0  0  0  0  0  0  0  0  0
   -0.7145   -3.7125    0.0000 O   0  0  0  0  0  0  0  0  0  0  0  0
    0.0000   -4.9500    0.0000 C   0  0  0  0  0  0  0  0  0  0  0  0
    0.7145   -4.5375    0.0000 C   0  0  0  0  0  0  0  0  0  0  0  0
    1.4289   -4.9500    0.0000 C   0  0  0  0  0  0  0  0  0  0  0  0
    1.4289   -5.7750    0.0000 C   0  0  0  0  0  0  0  0  0  0  0  0
    2.1434   -6.1875    0.0000 Cl  0  0  0  0  0  0  0  0  0  0  0  0
    0.7145   -6.1875    0.0000 C   0  0  0  0  0  0  0  0  0  0  0  0
    0.7145   -7.0125    0.0000 Cl  0  0  0  0  0  0  0  0  0  0  0  0
    0.0000   -5.7750    0.0000 C   0  0  0  0  0  0  0  0  0  0  0  0
  1  2  1  0  0  0  0
  2  3  1  0  0  0  0
  3  4  1  0  0  0  0
  4  5  1  0  0  0  0
  5  6  1  0  0  0  0
  6  7  1  0  0  0  0
  7  8  1  0  0  0  0
  8  9  1  0  0  0  0
  9 10  1  0  0  0  0
 10 11  1  0  0  0  0
  6 12  1  0  0  0  0
 12 13  2  0  0  0  0
 12 14  1  0  0  0  0
 14 15  1  0  0  0  0
 15 16  1  0  0  0  0
 16 17  1  0  0  0  0
 17 18  2  0  0  0  0
 17 19  1  0  0  0  0
 14 20  1  0  0  0  0
 20 21  1  0  0  0  0
 21 22  2  0  0  0  0
 21 23  1  0  0  0  0
 23 24  4  0  0  0  0
 24 25  4  0  0  0  0
 25 26  4  0  0  0  0
 26 27  1  0  0  0  0
 26 28  4  0  0  0  0
 28 29  1  0  0  0  0
 28 30  4  0  0  0  0
 23 30  4  0  0  0  0
M  END

> <ChembankId>
907370

> <SMILES>
CCCCCN(CCCCC)C(=O)C(CCC(=O)O)NC(=O)c1ccc(Cl)c(Cl)c1

> <InChI>
1/C22H32Cl2N2O4/c1-3-5-7-13-26(14-8-6-4-2)22(30)19(11-12-20(27)28)25-21(29)16-9-10-17(23)18(24)15-16/h9-10,15,19H,3-8,11-14H2,1-2H3,(H,25,29)(H,27,28)

$$$$
1078453
  Marvin  11101114202D          

 24 26  0  0  0  0            999 V2000
   -2.1434   -3.7125    0.0000 F   0  0  0  0  0  0  0  0  0  0  0  0
   -1.4289   -4.1250    0.0000 C   0  0  0  0  0  0  0  0  0  0  0  0
   -0.7145   -3.7125    0.0000 C   0  0  0  0  0  0  0  0  0  0  0  0
    0.0000   -4.1250    0.0000 C   0  0  0  0  0  0  0  0  0  0  0  0
    0.0000   -4.9500    0.0000 C   0  0  0  0  0  0  0  0  0  0  0  0
   -0.7145   -5.3625    0.0000 C   0  0  0  0  0  0  0  0  0  0  0  0
   -1.4289   -4.9500    0.0000 C   0  0  0  0  0  0  0  0  0  0  0  0
    0.7145   -5.3625    0.0000 C   0  0  0  0  0  0  0  0  0  0  0  0
    0.7145   -6.1875    0.0000 O   0  0  0  0  0  0  0  0  0  0  0  0
    1.4289   -4.9500    0.0000 C   0  0  0  0  0  0  0  0  0  0  0  0
    2.1434   -5.3625    0.0000 C   0  0  0  0  0  0  0  0  0  0  0  0
    2.8579   -4.9500    0.0000 C   0  0  0  0  0  0  0  0  0  0  0  0
    3.5724   -5.3625    0.0000 N   0  0  0  0  0  0  0  0  0  0  0  0
    4.2868   -4.9500    0.0000 C   0  0  0  0  0  0  0  0  0  0  0  0
    5.0013   -5.3625    0.0000 C   0  0  0  0  0  0  0  0  0  0  0  0
    5.0013   -6.1875    0.0000 N   0  0  0  0  0  0  0  0  0  0  0  0
    4.2868   -6.6000    0.0000 C   0  0  0  0  0  0  0  0  0  0  0  0
    3.5724   -6.1875    0.0000 C   0  0  0  0  0  0  0  0  0  0  0  0
    5.7158   -6.6000    0.0000 C   0  0  0  0  0  0  0  0  0  0  0  0
    6.4302   -6.1875    0.0000 C   0  0  0  0  0  0  0  0  0  0  0  0
    7.1447   -6.6000    0.0000 C   0  0  0  0  0  0  0  0  0  0  0  0
    7.1447   -7.4250    0.0000 C   0  0  0  0  0  0  0  0  0  0  0  0
    6.4302   -7.8375    0.0000 C   0  0  0  0  0  0  0  0  0  0  0  0
    5.7158   -7.4250    0.0000 N   0  0  0  0  0  0  0  0  0  0  0  0
  1  2  1  0  0  0  0
  2  3  4  0  0  0  0
  3  4  4  0  0  0  0
  4  5  4  0  0  0  0
  5  6  4  0  0  0  0
  6  7  4  0  0  0  0
  2  7  4  0  0  0  0
  5  8  1  0  0  0  0
  8  9  2  0  0  0  0
  8 10  1  0  0  0  0
 10 11  1  0  0  0  0
 11 12  1  0  0  0  0
 12 13  1  0  0  0  0
 13 14  1  0  0  0  0
 14 15  1  0  0  0  0
 15 16  1  0  0  0  0
 16 17  1  0  0  0  0
 17 18  1  0  0  0  0
 13 18  1  0  0  0  0
 16 19  1  0  0  0  0
 19 20  4  0  0  0  0
 20 21  4  0  0  0  0
 21 22  4  0  0  0  0
 22 23  4  0  0  0  0
 23 24  4  0  0  0  0
 19 24  4  0  0  0  0
M  END

> <ChembankId>
1078453

> <SMILES>
Fc1ccc(cc1)C(=O)CCCN2CCN(CC2)c3ccccn3

> <InChI>
1/C19H22FN3O/c20-17-8-6-16(7-9-17)18(24)4-3-11-22-12-14-23(15-13-22)19-5-1-2-10-21-19/h1-2,5-10H,3-4,11-15H2

$$$$
1029881
  Marvin  11101114202D          

 10 11  0  0  0  0            999 V2000
    0.0773    0.5912    0.0000 C   0  0  0  0  0  0  0  0  0  0  0  0
    0.4999   -0.1173    0.0000 N   0  0  0  0  0  0  0  0  0  0  0  0
    1.0605   -0.5572    0.0000 C   0  0  0  0  0  0  0  0  0  0  0  0
    0.7400   -1.2658    0.0000 C   0  0  0  0  0  0  0  0  0  0  0  0
    0.1197   -1.6427    0.0000 C   0  0  0  0  0  0  0  0  0  0  0  0
    0.6396   -0.9304    0.0000 C   0  0  0  0  0  0  0  0  0  0  0  0
    1.6113   -0.9304    0.0000 C   0  0  0  0  0  0  0  0  0  0  0  0
    2.1275   -1.3591    0.0000 C   0  0  0  0  0  0  0  0  0  0  0  0
    2.5393   -2.0740    0.0000 O   0  0  0  0  0  0  0  0  0  0  0  0
    1.9893   -0.5417    0.0000 C   0  0  0  0  0  0  0  0  0  0  0  0
  1  2  1  0  0  0  0
  2  3  1  0  0  0  0
  3  4  1  0  0  0  0
  4  5  1  0  0  0  0
  5  6  1  0  0  0  0
  2  6  1  0  0  0  0
  6  7  1  0  0  0  0
  7  8  1  0  0  0  0
  8  9  1  0  0  0  0
  8 10  1  0  0  0  0
  3 10  1  0  0  0  0
M  END

> <ChembankId>
1029881

> <SMILES>
CN1C2CCC1CC(O)C2

> <InChI>
1/C8H15NO/c1-9-6-2-3-7(9)5-8(10)4-6/h6-8,10H,2-5H2,1H3

$$$$
1001857
  Marvin  11101114202D          

 19 19  0  0  1  0            999 V2000
   -3.5724   -2.8875    0.0000 C   0  0  0  0  0  0  0  0  0  0  0  0
   -2.8579   -3.3000    0.0000 C   0  0  0  0  0  0  0  0  0  0  0  0
   -2.8579   -4.1250    0.0000 C   0  0  0  0  0  0  0  0  0  0  0  0
   -2.1434   -2.8875    0.0000 N   0  0  0  0  0  0  0  0  0  0  0  0
   -1.4289   -3.3000    0.0000 C   0  0  0  0  0  0  0  0  0  0  0  0
   -0.7145   -2.8875    0.0000 C   0  0  1  0  0  0  0  0  0  0  0  0
   -0.7145   -2.0625    0.0000 O   0  0  0  0  0  0  0  0  0  0  0  0
    0.0000   -3.3000    0.0000 C   0  0  0  0  0  0  0  0  0  0  0  0
    0.7145   -2.8875    0.0000 O   0  0  0  0  0  0  0  0  0  0  0  0
    1.4289   -3.3000    0.0000 C   0  0  0  0  0  0  0  0  0  0  0  0
    2.1434   -2.8875    0.0000 C   0  0  0  0  0  0  0  0  0  0  0  0
    2.8579   -3.3000    0.0000 C   0  0  0  0  0  0  0  0  0  0  0  0
    2.8579   -4.1250    0.0000 C   0  0  0  0  0  0  0  0  0  0  0  0
    3.5724   -4.5375    0.0000 C   0  0  0  0  0  0  0  0  0  0  0  0
    3.5724   -5.3625    0.0000 C   0  0  0  0  0  0  0  0  0  0  0  0
    4.2868   -5.7750    0.0000 O   0  0  0  0  0  0  0  0  0  0  0  0
    2.8579   -5.7750    0.0000 N   0  0  0  0  0  0  0  0  0  0  0  0
    2.1434   -4.5375    0.0000 C   0  0  0  0  0  0  0  0  0  0  0  0
    1.4289   -4.1250    0.0000 C   0  0  0  0  0  0  0  0  0  0  0  0
  1  2  1  0  0  0  0
  2  3  1  0  0  0  0
  2  4  1  0  0  0  0
  4  5  1  0  0  0  0
  5  6  1  0  0  0  0
  6  7  1  1  0  0  0
  6  8  1  0  0  0  0
  8  9  1  0  0  0  0
  9 10  1  0  0  0  0
 10 11  4  0  0  0  0
 11 12  4  0  0  0  0
 12 13  4  0  0  0  0
 13 14  1  0  0  0  0
 14 15  1  0  0  0  0
 15 16  2  0  0  0  0
 15 17  1  0  0  0  0
 13 18  4  0  0  0  0
 18 19  4  0  0  0  0
 10 19  4  0  0  0  0
M  END

> <ChembankId>
1001857

> <SMILES>
CC(C)NC[C@@H](O)COc1ccc(CC(=O)N)cc1

> <InChI>
1/C14H22N2O3/c1-10(2)16-8-12(17)9-19-13-5-3-11(4-6-13)7-14(15)18/h3-6,10,12,16-17H,7-9H2,1-2H3,(H2,15,18)

$$$$
3903
  Marvin  11101114202D          

 18 19  0  0  0  0            999 V2000
    3.1599   -0.1743    0.0000 C   0  0  0  0  0  0  0  0  0  0  0  0
    3.9849   -0.1743    0.0000 C   0  0  0  0  0  0  0  0  0  0  0  0
    4.8099   -0.1743    0.0000 C   0  0  0  0  0  0  0  0  0  0  0  0
    3.9849    0.6507    0.0000 O   0  0  0  0  0  0  0  0  0  0  0  0
    3.2704    1.0632    0.0000 C   0  0  0  0  0  0  0  0  0  0  0  0
    2.5559    0.6507    0.0000 C   0  0  0  0  0  0  0  0  0  0  0  0
    1.8414    1.0632    0.0000 C   0  0  0  0  0  0  0  0  0  0  0  0
    1.8414    1.8882    0.0000 C   0  0  0  0  0  0  0  0  0  0  0  0
    2.5559    2.3007    0.0000 C   0  0  0  0  0  0  0  0  0  0  0  0
    3.2704    1.8882    0.0000 C   0  0  0  0  0  0  0  0  0  0  0  0
    1.1270    2.3007    0.0000 C   0  0  0  0  0  0  0  0  0  0  0  0
    0.3020    2.3007    0.0000 C   0  0  0  0  0  0  0  0  0  0  0  0
    0.7145    3.0151    0.0000 C   0  0  0  0  0  0  0  0  0  0  0  0
    0.2413    3.6909    0.0000 Cl  0  0  0  0  0  0  0  0  0  0  0  0
    1.1877    3.6909    0.0000 Cl  0  0  0  0  0  0  0  0  0  0  0  0
    3.9849   -0.9993    0.0000 C   0  0  0  0  0  0  0  0  0  0  0  0
    4.6993   -1.4118    0.0000 O   0  0  0  0  0  0  0  0  0  0  0  0
    3.2704   -1.4118    0.0000 O   0  0  0  0  0  0  0  0  0  0  0  0
  1  2  1  0  0  0  0
  2  3  1  0  0  0  0
  2  4  1  0  0  0  0
  4  5  1  0  0  0  0
  5  6  4  0  0  0  0
  6  7  4  0  0  0  0
  7  8  4  0  0  0  0
  8  9  4  0  0  0  0
  9 10  4  0  0  0  0
  5 10  4  0  0  0  0
  8 11  1  0  0  0  0
 11 12  1  0  0  0  0
 12 13  1  0  0  0  0
 11 13  1  0  0  0  0
 13 14  1  0  0  0  0
 13 15  1  0  0  0  0
  2 16  1  0  0  0  0
 16 17  2  0  0  0  0
 16 18  1  0  0  0  0
M  END

> <ChembankId>
3903

> <SMILES>
CC(C)(Oc1ccc(cc1)C2CC2(Cl)Cl)C(=O)O

> <InChI>
1/C13H14Cl2O3/c1-12(2,11(16)17)18-9-5-3-8(4-6-9)10-7-13(10,14)15/h3-6,10H,7H2,1-2H3,(H,16,17)

$$$$
1336284
  Marvin  11101114202D          

 20 22  0  0  0  0            999 V2000
    1.4289    2.4750    0.0000 C   0  0  0  0  0  0  0  0  0  0  0  0
    2.1434    2.0625    0.0000 O   0  0  0  0  0  0  0  0  0  0  0  0
    2.1434    1.2375    0.0000 C   0  0  0  0  0  0  0  0  0  0  0  0
    2.8579    0.8250    0.0000 C   0  0  0  0  0  0  0  0  0  0  0  0
    3.6425    1.0799    0.0000 C   0  0  0  0  0  0  0  0  0  0  0  0
    4.1274    0.4125    0.0000 C   0  0  0  0  0  0  0  0  0  0  0  0
    3.6425   -0.2549    0.0000 O   0  0  0  0  0  0  0  0  0  0  0  0
    2.8579    0.0000    0.0000 C   0  0  0  0  0  0  0  0  0  0  0  0
    2.1434   -0.4125    0.0000 N   0  0  0  0  0  0  0  0  0  0  0  0
    1.4289    0.0000    0.0000 C   0  0  0  0  0  0  0  0  0  0  0  0
    0.7145   -0.4125    0.0000 C   0  0  0  0  0  0  0  0  0  0  0  0
    0.0000    0.0000    0.0000 C   0  0  0  0  0  0  0  0  0  0  0  0
    0.0000    0.8250    0.0000 C   0  0  0  0  0  0  0  0  0  0  0  0
    0.7145    1.2375    0.0000 C   0  0  0  0  0  0  0  0  0  0  0  0
    1.4289    0.8250    0.0000 C   0  0  0  0  0  0  0  0  0  0  0  0
    4.9524    0.4125    0.0000 C   0  0  0  0  0  0  0  0  0  0  0  0
    4.9524   -0.4125    0.0000 C   0  0  0  0  0  0  0  0  0  0  0  0
    4.9524    1.2375    0.0000 O   0  0  0  0  0  0  0  0  0  0  0  0
    5.7774    0.4125    0.0000 C   0  0  0  0  0  0  0  0  0  0  0  0
    6.1899    1.1270    0.0000 O   0  0  0  0  0  0  0  0  0  0  0  0
  1  2  1  0  0  0  0
  2  3  1  0  0  0  0
  3  4  4  0  0  0  0
  4  5  1  0  0  0  0
  5  6  1  0  0  0  0
  6  7  1  0  0  0  0
  7  8  1  0  0  0  0
  4  8  4  0  0  0  0
  8  9  4  0  0  0  0
  9 10  4  0  0  0  0
 10 11  4  0  0  0  0
 11 12  4  0  0  0  0
 12 13  4  0  0  0  0
 13 14  4  0  0  0  0
 14 15  4  0  0  0  0
  3 15  4  0  0  0  0
 10 15  4  0  0  0  0
  6 16  1  0  0  0  0
 16 17  1  0  0  0  0
 16 18  1  0  0  0  0
 16 19  1  0  0  0  0
 19 20  1  0  0  0  0
M  END

> <ChembankId>
1336284

> <SMILES>
COc1c2CC(Oc2nc3ccccc13)C(C)(O)CO

> <InChI>
1/C15H17NO4/c1-15(18,8-17)12-7-10-13(19-2)9-5-3-4-6-11(9)16-14(10)20-12/h3-6,12,17-18H,7-8H2,1-2H3

$$$$
2030
  Marvin  11101114202D          

 27 26  0  0  0  0            999 V2000
    9.2368    5.3329    0.0000 O   0  0  0  0  0  0  0  0  0  0  0  0
    8.5224    5.7454    0.0000 C   0  0  0  0  0  0  0  0  0  0  0  0
    8.5224    6.5704    0.0000 O   0  0  0  0  0  0  0  0  0  0  0  0
    7.8079    5.3329    0.0000 C   0  0  0  0  0  0  0  0  0  0  0  0
    7.8079    4.5079    0.0000 N   0  0  0  0  0  0  0  0  0  0  0  0
    7.0934    4.0954    0.0000 C   0  0  0  0  0  0  0  0  0  0  0  0
    6.3789    4.5079    0.0000 C   0  0  0  0  0  0  0  0  0  0  0  0
    5.6645    4.0954    0.0000 N   0  0  0  0  0  0  0  0  0  0  0  0
    4.9500    4.5079    0.0000 C   0  0  0  0  0  0  0  0  0  0  0  0
    4.9500    5.3329    0.0000 C   0  0  0  0  0  0  0  0  0  0  0  0
    5.6645    5.7454    0.0000 O   0  0  0  0  0  0  0  0  0  0  0  0
    4.2355    5.7454    0.0000 O   0  0  0  0  0  0  0  0  0  0  0  0
    5.6645    3.2704    0.0000 C   0  0  0  0  0  0  0  0  0  0  0  0
    4.9500    2.8579    0.0000 C   0  0  0  0  0  0  0  0  0  0  0  0
    4.2355    3.2704    0.0000 O   0  0  0  0  0  0  0  0  0  0  0  0
    4.9500    2.0329    0.0000 O   0  0  0  0  0  0  0  0  0  0  0  0
    8.5224    4.0954    0.0000 C   0  0  0  0  0  0  0  0  0  0  0  0
    9.2368    4.5079    0.0000 C   0  0  0  0  0  0  0  0  0  0  0  0
    9.9513    4.0954    0.0000 N   0  0  0  0  0  0  0  0  0  0  0  0
   10.6658    4.5079    0.0000 C   0  0  0  0  0  0  0  0  0  0  0  0
   10.6658    5.3329    0.0000 C   0  0  0  0  0  0  0  0  0  0  0  0
    9.9513    5.7454    0.0000 O   0  0  0  0  0  0  0  0  0  0  0  0
   11.3802    5.7454    0.0000 O   0  0  0  0  0  0  0  0  0  0  0  0
    9.9513    3.2704    0.0000 C   0  0  0  0  0  0  0  0  0  0  0  0
   10.6658    2.8579    0.0000 C   0  0  0  0  0  0  0  0  0  0  0  0
   11.3802    3.2704    0.0000 O   0  0  0  0  0  0  0  0  0  0  0  0
   10.6658    2.0329    0.0000 O   0  0  0  0  0  0  0  0  0  0  0  0
  1  2  1  0  0  0  0
  2  3  2  0  0  0  0
  2  4  1  0  0  0  0
  4  5  1  0  0  0  0
  5  6  1  0  0  0  0
  6  7  1  0  0  0  0
  7  8  1  0  0  0  0
  8  9  1  0  0  0  0
  9 10  1  0  0  0  0
 10 11  2  0  0  0  0
 10 12  1  0  0  0  0
  8 13  1  0  0  0  0
 13 14  1  0  0  0  0
 14 15  2  0  0  0  0
 14 16  1  0  0  0  0
  5 17  1  0  0  0  0
 17 18  1  0  0  0  0
 18 19  1  0  0  0  0
 19 20  1  0  0  0  0
 20 21  1  0  0  0  0
 21 22  2  0  0  0  0
 21 23  1  0  0  0  0
 19 24  1  0  0  0  0
 24 25  1  0  0  0  0
 25 26  2  0  0  0  0
 25 27  1  0  0  0  0
M  END

> <ChembankId>
2030

> <SMILES>
OC(=O)CN(CCN(CC(=O)O)CC(=O)O)CCN(CC(=O)O)CC(=O)O

> <InChI>
1/C14H23N3O10/c18-10(19)5-15(1-3-16(6-11(20)21)7-12(22)23)2-4-17(8-13(24)25)9-14(26)27/h1-9H2,(H,18,19)(H,20,21)(H,22,23)(H,24,25)(H,26,27)

$$$$
2057
  Marvin  11101114202D          

 19 22  0  0  0  0            999 V2000
    1.7901    2.3118    0.0000 C   0  0  0  0  0  0  0  0  0  0  0  0
    1.9528    1.5030    0.0000 C   0  0  0  0  0  0  0  0  0  0  0  0
    2.7345    1.2394    0.0000 C   0  0  0  0  0  0  0  0  0  0  0  0
    3.4535    1.6440    0.0000 N   0  0  0  0  0  0  0  0  0  0  0  0
    4.0605    1.0852    0.0000 C   0  0  0  0  0  0  0  0  0  0  0  0
    4.8818    1.1624    0.0000 C   0  0  0  0  0  0  0  0  0  0  0  0
    5.3594    0.4897    0.0000 C   0  0  0  0  0  0  0  0  0  0  0  0
    5.0155   -0.2602    0.0000 C   0  0  0  0  0  0  0  0  0  0  0  0
    4.1942   -0.3374    0.0000 C   0  0  0  0  0  0  0  0  0  0  0  0
    3.7166    0.3353    0.0000 C   0  0  0  0  0  0  0  0  0  0  0  0
    2.8971    0.4306    0.0000 C   0  0  0  0  0  0  0  0  0  0  0  0
    2.2780   -0.1146    0.0000 C   0  0  0  0  0  0  0  0  0  0  0  0
    2.4406   -0.9235    0.0000 C   0  0  0  0  0  0  0  0  0  0  0  0
    1.4962    0.1489    0.0000 C   0  0  0  0  0  0  0  0  0  0  0  0
    0.8771   -0.3963    0.0000 C   0  0  0  0  0  0  0  0  0  0  0  0
    0.0953   -0.1327    0.0000 N   0  0  0  0  0  0  0  0  0  0  0  0
   -0.0673    0.6761    0.0000 C   0  0  0  0  0  0  0  0  0  0  0  0
    0.5519    1.2213    0.0000 C   0  0  0  0  0  0  0  0  0  0  0  0
    1.3336    0.9577    0.0000 C   0  0  0  0  0  0  0  0  0  0  0  0
  1  2  1  0  0  0  0
  2  3  4  0  0  0  0
  3  4  4  0  0  0  0
  4  5  4  0  0  0  0
  5  6  4  0  0  0  0
  6  7  4  0  0  0  0
  7  8  4  0  0  0  0
  8  9  4  0  0  0  0
  9 10  4  0  0  0  0
  5 10  4  0  0  0  0
 10 11  4  0  0  0  0
  3 11  4  0  0  0  0
 11 12  4  0  0  0  0
 12 13  1  0  0  0  0
 12 14  4  0  0  0  0
 14 15  4  0  0  0  0
 15 16  4  0  0  0  0
 16 17  4  0  0  0  0
 17 18  4  0  0  0  0
 18 19  4  0  0  0  0
  2 19  4  0  0  0  0
 14 19  4  0  0  0  0
M  STY  1   1 DAT
M  SAL   1  1   4
M  SDT   1 MRV_IMPLICIT_H                                        
M  SDD   1     0.0000    0.0000    DR    ALL  0       0  
M  SED   1 IMPL_H1
M  END

> <ChembankId>
2057

> <SMILES>
Cc1c2[nH]c3ccccc3c2c(C)c4cnccc14

> <InChI>
1/C17H14N2/c1-10-14-9-18-8-7-12(14)11(2)17-16(10)13-5-3-4-6-15(13)19-17/h3-9,19H,1-2H3

$$$$
907302
  Marvin  11101114202D          

 16 18  0  0  1  0            999 V2000
    3.9359   -0.8048    0.0000 C   0  0  0  0  0  0  0  0  0  0  0  0
    3.4379   -0.1470    0.0000 N   0  0  0  0  0  0  0  0  0  0  0  0
    3.6774    0.6425    0.0000 C   0  0  0  0  0  0  0  0  0  0  0  0
    3.0005    1.1142    0.0000 C   0  0  0  0  0  0  0  0  0  0  0  0
    2.3427    0.6162    0.0000 C   0  0  2  0  0  0  0  0  0  0  0  0
    2.0724    1.3956    0.0000 C   0  0  0  0  0  0  0  0  0  0  0  0
    2.6131   -0.1633    0.0000 C   0  0  0  0  0  0  0  0  0  0  0  0
    1.9554   -0.6613    0.0000 N   0  0  0  0  0  0  0  0  0  0  0  0
    1.9716   -1.4861    0.0000 C   0  0  0  0  0  0  0  0  0  0  0  0
    1.2785   -0.1896    0.0000 C   0  0  0  0  0  0  0  0  0  0  0  0
    0.4750   -0.3770    0.0000 C   0  0  0  0  0  0  0  0  0  0  0  0
   -0.0890    0.2251    0.0000 C   0  0  0  0  0  0  0  0  0  0  0  0
    0.1505    1.0146    0.0000 C   0  0  0  0  0  0  0  0  0  0  0  0
   -0.4136    1.6167    0.0000 O   0  0  0  0  0  0  0  0  0  0  0  0
    0.9539    1.2020    0.0000 C   0  0  0  0  0  0  0  0  0  0  0  0
    1.5179    0.5999    0.0000 C   0  0  0  0  0  0  0  0  0  0  0  0
  1  2  1  0  0  0  0
  2  3  1  0  0  0  0
  3  4  1  0  0  0  0
  4  5  1  0  0  0  0
  5  6  1  1  0  0  0
  5  7  1  0  0  0  0
  2  7  1  0  0  0  0
  7  8  1  0  0  0  0
  8  9  1  0  0  0  0
  8 10  1  0  0  0  0
 10 11  4  0  0  0  0
 11 12  4  0  0  0  0
 12 13  4  0  0  0  0
 13 14  1  0  0  0  0
 13 15  4  0  0  0  0
 15 16  4  0  0  0  0
 10 16  4  0  0  0  0
  5 16  1  0  0  0  0
M  END

> <ChembankId>
907302

> <SMILES>
CN1CC[C@]2(C)C1N(C)c3ccc(O)cc32

> <InChI>
1/C13H18N2O/c1-13-6-7-14(2)12(13)15(3)11-5-4-9(16)8-10(11)13/h4-5,8,12,16H,6-7H2,1-3H3/t12-,13-/m0/s1

$$$$
3069738
  Marvin  11101114202D          

 25 24  0  0  0  0            999 V2000
   -3.0960    0.6875    0.0000 C   0  0  0  0  0  0  0  0  0  0  0  0
   -2.3816    0.2750    0.0000 C   0  0  0  0  0  0  0  0  0  0  0  0
   -2.3816   -0.5500    0.0000 C   0  0  0  0  0  0  0  0  0  0  0  0
   -1.6671    0.6875    0.0000 N   0  0  0  0  0  0  0  0  0  0  0  0
   -0.9526    0.2750    0.0000 C   0  0  0  0  0  0  0  0  0  0  0  0
   -0.2382    0.6875    0.0000 C   0  0  0  0  0  0  0  0  0  0  0  0
   -0.2382    1.5125    0.0000 O   0  0  0  0  0  0  0  0  0  0  0  0
    0.4763    0.2750    0.0000 C   0  0  0  0  0  0  0  0  0  0  0  0
    1.1908    0.6875    0.0000 C   0  0  0  0  0  0  0  0  0  0  0  0
    1.9053    0.2750    0.0000 C   0  0  0  0  0  0  0  0  0  0  0  0
    1.9053   -0.5500    0.0000 C   0  0  0  0  0  0  0  0  0  0  0  0
    2.6197   -0.9625    0.0000 O   0  0  0  0  0  0  0  0  0  0  0  0
    1.1908   -0.9625    0.0000 C   0  0  0  0  0  0  0  0  0  0  0  0
    1.1908   -1.7875    0.0000 O   0  0  0  0  0  0  0  0  0  0  0  0
    0.4763   -0.5500    0.0000 C   0  0  0  0  0  0  0  0  0  0  0  0
    6.7667    1.0313    0.0000 O   0  0  0  0  0  0  0  0  0  0  0  0
    6.7667    0.2063    0.0000 C   0  0  0  0  0  0  0  0  0  0  0  0
    6.0522   -0.2062    0.0000 C   0  0  0  0  0  0  0  0  0  0  0  0
    6.0522   -1.0312    0.0000 O   0  0  0  0  0  0  0  0  0  0  0  0
    5.3378    0.2063    0.0000 C   0  0  0  0  0  0  0  0  0  0  0  0
    4.6233   -0.2062    0.0000 O   0  0  0  0  0  0  0  0  0  0  0  0
    5.3378    1.0313    0.0000 O   0  0  0  0  0  0  0  0  0  0  0  0
    7.4812   -0.2063    0.0000 C   0  0  0  0  0  0  0  0  0  0  0  0
    8.1957    0.2062    0.0000 O   0  0  0  0  0  0  0  0  0  0  0  0
    7.4812   -1.0313    0.0000 O   0  0  0  0  0  0  0  0  0  0  0  0
  1  2  1  0  0  0  0
  2  3  1  0  0  0  0
  2  4  1  0  0  0  0
  4  5  1  0  0  0  0
  5  6  1  0  0  0  0
  6  7  1  0  0  0  0
  6  8  1  0  0  0  0
  8  9  4  0  0  0  0
  9 10  4  0  0  0  0
 10 11  4  0  0  0  0
 11 12  1  0  0  0  0
 11 13  4  0  0  0  0
 13 14  1  0  0  0  0
 13 15  4  0  0  0  0
  8 15  4  0  0  0  0
 16 17  1  0  0  0  0
 17 18  1  0  0  0  0
 18 19  1  0  0  0  0
 18 20  1  0  0  0  0
 20 21  2  0  0  0  0
 20 22  1  0  0  0  0
 17 23  1  0  0  0  0
 23 24  2  0  0  0  0
 23 25  1  0  0  0  0
M  END

> <ChembankId>
3069738

> <SMILES>
CC(C)NCC(O)c1ccc(O)c(O)c1.OC(C(O)C(=O)O)C(=O)O

> <InChI>
1/C11H17NO3.C4H6O6/c1-7(2)12-6-11(15)8-3-4-9(13)10(14)5-8;5-1(3(7)8)2(6)4(9)10/h3-5,7,11-15H,6H2,1-2H3;1-2,5-6H,(H,7,8)(H,9,10)/t11-;1-,2+/m0./s1

$$$$
2137
  Marvin  11101114202D          

 21 23  0  0  0  0            999 V2000
    0.0000   -1.6500    0.0000 O   0  0  0  0  0  0  0  0  0  0  0  0
    0.7145   -1.2375    0.0000 C   0  0  0  0  0  0  0  0  0  0  0  0
    0.7145   -0.4125    0.0000 C   0  0  0  0  0  0  0  0  0  0  0  0
    1.4289    0.0000    0.0000 C   0  0  0  0  0  0  0  0  0  0  0  0
    1.4289    0.8250    0.0000 O   0  0  0  0  0  0  0  0  0  0  0  0
    2.1434   -0.4125    0.0000 C   0  0  0  0  0  0  0  0  0  0  0  0
    2.8579    0.0000    0.0000 C   0  0  0  0  0  0  0  0  0  0  0  0
    2.8579    0.8250    0.0000 O   0  0  0  0  0  0  0  0  0  0  0  0
    3.5724   -0.4125    0.0000 C   0  0  0  0  0  0  0  0  0  0  0  0
    3.5724   -1.2375    0.0000 C   0  0  0  0  0  0  0  0  0  0  0  0
    2.8579   -1.6500    0.0000 O   0  0  0  0  0  0  0  0  0  0  0  0
    2.1434   -1.2375    0.0000 C   0  0  0  0  0  0  0  0  0  0  0  0
    1.4289   -1.6500    0.0000 C   0  0  0  0  0  0  0  0  0  0  0  0
    4.2868   -1.6500    0.0000 C   0  0  0  0  0  0  0  0  0  0  0  0
    5.0013   -1.2375    0.0000 C   0  0  0  0  0  0  0  0  0  0  0  0
    5.7158   -1.6500    0.0000 C   0  0  0  0  0  0  0  0  0  0  0  0
    5.7158   -2.4750    0.0000 C   0  0  0  0  0  0  0  0  0  0  0  0
    6.4302   -2.8875    0.0000 O   0  0  0  0  0  0  0  0  0  0  0  0
    5.0013   -2.8875    0.0000 C   0  0  0  0  0  0  0  0  0  0  0  0
    5.0013   -3.7125    0.0000 O   0  0  0  0  0  0  0  0  0  0  0  0
    4.2868   -2.4750    0.0000 C   0  0  0  0  0  0  0  0  0  0  0  0
  1  2  1  0  0  0  0
  2  3  4  0  0  0  0
  3  4  4  0  0  0  0
  4  5  1  0  0  0  0
  4  6  4  0  0  0  0
  6  7  4  0  0  0  0
  7  8  2  0  0  0  0
  7  9  4  0  0  0  0
  9 10  4  0  0  0  0
 10 11  4  0  0  0  0
 11 12  4  0  0  0  0
  6 12  4  0  0  0  0
 12 13  4  0  0  0  0
  2 13  4  0  0  0  0
 10 14  1  0  0  0  0
 14 15  4  0  0  0  0
 15 16  4  0  0  0  0
 16 17  4  0  0  0  0
 17 18  1  0  0  0  0
 17 19  4  0  0  0  0
 19 20  1  0  0  0  0
 19 21  4  0  0  0  0
 14 21  4  0  0  0  0
M  END

> <ChembankId>
2137

> <SMILES>
Oc1cc(O)c2c(=O)cc(oc2c1)c3ccc(O)c(O)c3

> <InChI>
1/C15H10O6/c16-8-4-11(19)15-12(20)6-13(21-14(15)5-8)7-1-2-9(17)10(18)3-7/h1-6,16-19H

$$$$
865102
  Marvin  11101114202D          

 22 23  0  0  0  0            999 V2000
    5.7158   -4.1250    0.0000 O   0  0  0  0  0  0  0  0  0  0  0  0
    5.7158   -4.9500    0.0000 C   0  0  0  0  0  0  0  0  0  0  0  0
    5.0013   -5.3625    0.0000 C   0  0  0  0  0  0  0  0  0  0  0  0
    4.2868   -4.9500    0.0000 C   0  0  0  0  0  0  0  0  0  0  0  0
    3.5724   -5.3625    0.0000 N   0  0  0  0  0  0  0  0  0  0  0  0
    2.8579   -4.9500    0.0000 N   0  0  0  0  0  0  0  0  0  0  0  0
    2.1434   -5.3625    0.0000 C   0  0  0  0  0  0  0  0  0  0  0  0
    2.1434   -6.1875    0.0000 O   0  0  0  0  0  0  0  0  0  0  0  0
    1.4289   -4.9500    0.0000 C   0  0  0  0  0  0  0  0  0  0  0  0
    0.7145   -5.3625    0.0000 C   0  0  0  0  0  0  0  0  0  0  0  0
    0.0000   -4.9500    0.0000 C   0  0  0  0  0  0  0  0  0  0  0  0
    0.0000   -4.1250    0.0000 N   0  0  0  0  0  0  0  0  0  0  0  0
    0.7145   -3.7125    0.0000 C   0  0  0  0  0  0  0  0  0  0  0  0
    1.4289   -4.1250    0.0000 C   0  0  0  0  0  0  0  0  0  0  0  0
    6.4302   -5.3625    0.0000 N   0  0  0  0  0  0  0  0  0  0  0  0
    7.1447   -4.9500    0.0000 C   0  0  0  0  0  0  0  0  0  0  0  0
    7.8592   -5.3625    0.0000 C   0  0  0  0  0  0  0  0  0  0  0  0
    8.5737   -4.9500    0.0000 C   0  0  0  0  0  0  0  0  0  0  0  0
    9.2881   -5.3625    0.0000 C   0  0  0  0  0  0  0  0  0  0  0  0
    9.2881   -6.1875    0.0000 C   0  0  0  0  0  0  0  0  0  0  0  0
    8.5737   -6.6000    0.0000 C   0  0  0  0  0  0  0  0  0  0  0  0
    7.8592   -6.1875    0.0000 C   0  0  0  0  0  0  0  0  0  0  0  0
  1  2  2  0  0  0  0
  2  3  1  0  0  0  0
  3  4  1  0  0  0  0
  4  5  1  0  0  0  0
  5  6  1  0  0  0  0
  6  7  1  0  0  0  0
  7  8  2  0  0  0  0
  7  9  1  0  0  0  0
  9 10  4  0  0  0  0
 10 11  4  0  0  0  0
 11 12  4  0  0  0  0
 12 13  4  0  0  0  0
 13 14  4  0  0  0  0
  9 14  4  0  0  0  0
  2 15  1  0  0  0  0
 15 16  1  0  0  0  0
 16 17  1  0  0  0  0
 17 18  4  0  0  0  0
 18 19  4  0  0  0  0
 19 20  4  0  0  0  0
 20 21  4  0  0  0  0
 21 22  4  0  0  0  0
 17 22  4  0  0  0  0
M  END

> <ChembankId>
865102

> <SMILES>
O=C(CCNNC(=O)c1ccncc1)NCc2ccccc2

> <InChI>
1/C16H18N4O2/c21-15(18-12-13-4-2-1-3-5-13)8-11-19-20-16(22)14-6-9-17-10-7-14/h1-7,9-10,19H,8,11-12H2,(H,18,21)(H,20,22)

$$$$
3177333
  Marvin  11101114202D          

 24 27  0  0  1  0            999 V2000
    1.7447   -3.0280    0.0000 C   0  0  0  0  0  0  0  0  0  0  0  0
    2.5619   -3.1408    0.0000 C   0  0  0  0  0  0  0  0  0  0  0  0
    2.8728   -3.9050    0.0000 O   0  0  0  0  0  0  0  0  0  0  0  0
    3.0683   -2.4895    0.0000 C   0  0  1  0  0  0  0  0  0  0  0  0
    2.8390   -1.6970    0.0000 C   0  0  0  0  0  0  0  0  0  0  0  0
    3.5218   -1.2340    0.0000 C   0  0  0  0  0  0  0  0  0  0  0  0
    4.1731   -1.7404    0.0000 C   0  0  1  0  0  0  0  0  0  0  0  0
    4.9853   -1.5952    0.0000 C   0  0  2  0  0  0  0  0  0  0  0  0
    5.2655   -0.8192    0.0000 C   0  0  0  0  0  0  0  0  0  0  0  0
    6.0777   -0.6740    0.0000 C   0  0  0  0  0  0  0  0  0  0  0  0
    6.6095   -1.3047    0.0000 C   0  0  1  0  0  0  0  0  0  0  0  0
    7.4216   -1.1595    0.0000 C   0  0  0  0  0  0  0  0  0  0  0  0
    7.9534   -1.7902    0.0000 C   0  0  2  0  0  0  0  0  0  0  0  0
    8.7655   -1.6450    0.0000 O   0  0  0  0  0  0  0  0  0  0  0  0
    7.6731   -2.5662    0.0000 C   0  0  0  0  0  0  0  0  0  0  0  0
    6.8610   -2.7114    0.0000 C   0  0  0  0  0  0  0  0  0  0  0  0
    6.3292   -2.0807    0.0000 C   0  0  1  0  0  0  0  0  0  0  0  0
    6.0489   -2.8566    0.0000 C   0  0  0  0  0  0  0  0  0  0  0  0
    5.5171   -2.2259    0.0000 C   0  0  1  0  0  0  0  0  0  0  0  0
    5.2368   -3.0018    0.0000 C   0  0  0  0  0  0  0  0  0  0  0  0
    5.7686   -3.6325    0.0000 O   0  0  0  0  0  0  0  0  0  0  0  0
    4.4247   -3.1470    0.0000 C   0  0  0  0  0  0  0  0  0  0  0  0
    3.8928   -2.5163    0.0000 C   0  0  2  0  0  0  0  0  0  0  0  0
    3.5330   -3.2587    0.0000 C   0  0  0  0  0  0  0  0  0  0  0  0
  1  2  1  0  0  0  0
  2  3  2  0  0  0  0
  4  2  1  1  0  0  0
  4  5  1  0  0  0  0
  5  6  1  0  0  0  0
  7  6  1  1  0  0  0
  7  8  1  0  0  0  0
  8  9  1  6  0  0  0
  9 10  1  0  0  0  0
 10 11  1  0  0  0  0
 11 12  1  1  0  0  0
 12 13  1  0  0  0  0
 13 14  1  6  0  0  0
 13 15  1  0  0  0  0
 15 16  1  0  0  0  0
 16 17  1  0  0  0  0
 11 17  1  0  0  0  0
 17 18  1  1  0  0  0
 17 19  1  0  0  0  0
  8 19  1  0  0  0  0
 19 20  1  1  0  0  0
 20 21  2  0  0  0  0
 20 22  1  0  0  0  0
 22 23  1  0  0  0  0
  4 23  1  0  0  0  0
  7 23  1  0  0  0  0
 23 24  1  1  0  0  0
M  END

> <ChembankId>
3177333

> <SMILES>
CC(=O)[C@H]1CC[C@H]2[C@@H]3CC[C@H]4C[C@H](O)CC[C@]4(C)[C@H]3C(=O)C[C@]12C

> <InChI>
1/C21H32O3/c1-12(22)16-6-7-17-15-5-4-13-10-14(23)8-9-20(13,2)19(15)18(24)11-21(16,17)3/h13-17,19,23H,4-11H2,1-3H3

$$$$
2245
  Marvin  11101114202D          

 22 25  0  0  0  0            999 V2000
    4.0668    2.3479    0.0000 C   0  0  0  0  0  0  0  0  0  0  0  0
    4.0668    3.1729    0.0000 N   0  0  0  0  0  0  0  0  0  0  0  0
    3.3523    3.5854    0.0000 C   0  0  0  0  0  0  0  0  0  0  0  0
    3.3523    4.4104    0.0000 C   0  0  0  0  0  0  0  0  0  0  0  0
    4.0668    4.8229    0.0000 N   0  0  0  0  0  0  0  0  0  0  0  0
    4.7812    4.4104    0.0000 C   0  0  0  0  0  0  0  0  0  0  0  0
    4.7812    3.5854    0.0000 C   0  0  0  0  0  0  0  0  0  0  0  0
    4.0668    5.6479    0.0000 C   0  0  0  0  0  0  0  0  0  0  0  0
    3.3523    6.0604    0.0000 N   0  0  0  0  0  0  0  0  0  0  0  0
    3.3523    6.8854    0.0000 C   0  0  0  0  0  0  0  0  0  0  0  0
    4.0668    7.2979    0.0000 C   0  0  0  0  0  0  0  0  0  0  0  0
    4.7812    6.8854    0.0000 C   0  0  0  0  0  0  0  0  0  0  0  0
    4.7812    6.0604    0.0000 N   0  0  0  0  0  0  0  0  0  0  0  0
    3.3523    1.9354    0.0000 C   0  0  0  0  0  0  0  0  0  0  0  0
    3.3523    1.1104    0.0000 C   0  0  0  0  0  0  0  0  0  0  0  0
    2.6378    0.6979    0.0000 C   0  0  0  0  0  0  0  0  0  0  0  0
    1.9233    1.1104    0.0000 C   0  0  0  0  0  0  0  0  0  0  0  0
    1.1387    0.8555    0.0000 O   0  0  0  0  0  0  0  0  0  0  0  0
    0.6538    1.5229    0.0000 C   0  0  0  0  0  0  0  0  0  0  0  0
    1.1387    2.1904    0.0000 O   0  0  0  0  0  0  0  0  0  0  0  0
    1.9233    1.9354    0.0000 C   0  0  0  0  0  0  0  0  0  0  0  0
    2.6378    2.3479    0.0000 C   0  0  0  0  0  0  0  0  0  0  0  0
  1  2  1  0  0  0  0
  2  3  1  0  0  0  0
  3  4  1  0  0  0  0
  4  5  1  0  0  0  0
  5  6  1  0  0  0  0
  6  7  1  0  0  0  0
  2  7  1  0  0  0  0
  5  8  1  0  0  0  0
  8  9  4  0  0  0  0
  9 10  4  0  0  0  0
 10 11  4  0  0  0  0
 11 12  4  0  0  0  0
 12 13  4  0  0  0  0
  8 13  4  0  0  0  0
  1 14  1  0  0  0  0
 14 15  4  0  0  0  0
 15 16  4  0  0  0  0
 16 17  4  0  0  0  0
 17 18  1  0  0  0  0
 18 19  1  0  0  0  0
 19 20  1  0  0  0  0
 20 21  1  0  0  0  0
 17 21  4  0  0  0  0
 21 22  4  0  0  0  0
 14 22  4  0  0  0  0
M  END

> <ChembankId>
2245

> <SMILES>
C(N1CCN(CC1)c2ncccn2)c3ccc4OCOc4c3

> <InChI>
1/C16H18N4O2/c1-4-17-16(18-5-1)20-8-6-19(7-9-20)11-13-2-3-14-15(10-13)22-12-21-14/h1-5,10H,6-9,11-12H2

$$$$
1795
  Marvin  11101114202D          

 30 34  0  0  0  0            999 V2000
    7.4575   -8.8836    0.0000 C   0  0  0  0  0  0  0  0  0  0  0  0
    6.6505   -9.0551    0.0000 C   0  0  0  0  0  0  0  0  0  0  0  0
    6.3956   -9.8398    0.0000 N   0  0  0  0  0  0  0  0  0  0  0  0
    5.5886  -10.0113    0.0000 C   0  0  0  0  0  0  0  0  0  0  0  0
    5.3337  -10.7959    0.0000 C   0  0  0  0  0  0  0  0  0  0  0  0
    4.5267  -10.9674    0.0000 C   0  0  0  0  0  0  0  0  0  0  0  0
    3.9747  -10.3543    0.0000 C   0  0  0  0  0  0  0  0  0  0  0  0
    4.2296   -9.5697    0.0000 C   0  0  0  0  0  0  0  0  0  0  0  0
    5.0366   -9.3982    0.0000 N   0  0  0  0  0  0  0  0  0  0  0  0
    5.2915   -8.6136    0.0000 C   0  0  0  0  0  0  0  0  0  0  0  0
    4.7395   -8.0005    0.0000 O   0  0  0  0  0  0  0  0  0  0  0  0
    6.0985   -8.4420    0.0000 C   0  0  0  0  0  0  0  0  0  0  0  0
    6.3534   -7.6574    0.0000 C   0  0  0  0  0  0  0  0  0  0  0  0
    5.8014   -7.0443    0.0000 C   0  0  0  0  0  0  0  0  0  0  0  0
    6.0563   -6.2597    0.0000 N   0  0  0  0  0  0  0  0  0  0  0  0
    5.5043   -5.6466    0.0000 C   0  0  0  0  0  0  0  0  0  0  0  0
    5.7592   -4.8620    0.0000 C   0  0  0  0  0  0  0  0  0  0  0  0
    6.5662   -4.6905    0.0000 C   0  0  0  0  0  0  0  0  0  0  0  0
    7.1182   -5.3035    0.0000 C   0  0  0  0  0  0  0  0  0  0  0  0
    6.8633   -6.0882    0.0000 C   0  0  0  0  0  0  0  0  0  0  0  0
    6.8211   -3.9058    0.0000 C   0  0  0  0  0  0  0  0  0  0  0  0
    6.3362   -3.2384    0.0000 N   0  0  0  0  0  0  0  0  0  0  0  0
    6.8211   -2.5710    0.0000 O   0  0  0  0  0  0  0  0  0  0  0  0
    7.6058   -2.8259    0.0000 C   0  0  0  0  0  0  0  0  0  0  0  0
    8.3202   -2.4134    0.0000 C   0  0  0  0  0  0  0  0  0  0  0  0
    9.0347   -2.8259    0.0000 C   0  0  0  0  0  0  0  0  0  0  0  0
    9.7492   -2.4134    0.0000 F   0  0  0  0  0  0  0  0  0  0  0  0
    9.0347   -3.6509    0.0000 C   0  0  0  0  0  0  0  0  0  0  0  0
    8.3202   -4.0634    0.0000 C   0  0  0  0  0  0  0  0  0  0  0  0
    7.6058   -3.6509    0.0000 C   0  0  0  0  0  0  0  0  0  0  0  0
  1  2  1  0  0  0  0
  2  3  4  0  0  0  0
  3  4  4  0  0  0  0
  4  5  1  0  0  0  0
  5  6  1  0  0  0  0
  6  7  1  0  0  0  0
  7  8  1  0  0  0  0
  8  9  1  0  0  0  0
  4  9  4  0  0  0  0
  9 10  4  0  0  0  0
 10 11  2  0  0  0  0
 10 12  4  0  0  0  0
  2 12  4  0  0  0  0
 12 13  1  0  0  0  0
 13 14  1  0  0  0  0
 14 15  1  0  0  0  0
 15 16  1  0  0  0  0
 16 17  1  0  0  0  0
 17 18  1  0  0  0  0
 18 19  1  0  0  0  0
 19 20  1  0  0  0  0
 15 20  1  0  0  0  0
 18 21  1  0  0  0  0
 21 22  4  0  0  0  0
 22 23  4  0  0  0  0
 23 24  4  0  0  0  0
 24 25  4  0  0  0  0
 25 26  4  0  0  0  0
 26 27  1  0  0  0  0
 26 28  4  0  0  0  0
 28 29  4  0  0  0  0
 29 30  4  0  0  0  0
 21 30  4  0  0  0  0
 24 30  4  0  0  0  0
M  END

> <ChembankId>
1795

> <SMILES>
Cc1nc2CCCCn2c(=O)c1CCN3CCC(CC3)c4noc5cc(F)ccc45

> <InChI>
1/C23H27FN4O2/c1-15-18(23(29)28-10-3-2-4-21(28)25-15)9-13-27-11-7-16(8-12-27)22-19-6-5-17(24)14-20(19)30-26-22/h5-6,14,16H,2-4,7-13H2,1H3

$$$$
3177475
  Marvin  11101114202D          

 24 26  0  0  0  0            999 V2000
    0.0000    2.4750    0.0000 C   0  0  0  0  0  0  0  0  0  0  0  0
    0.7145    2.0625    0.0000 O   0  0  0  0  0  0  0  0  0  0  0  0
    0.7145    1.2375    0.0000 C   0  0  0  0  0  0  0  0  0  0  0  0
    1.4289    0.8250    0.0000 C   0  0  0  0  0  0  0  0  0  0  0  0
    1.4289   -0.0000    0.0000 C   0  0  0  0  0  0  0  0  0  0  0  0
    0.7145   -0.4125    0.0000 C   0  0  0  0  0  0  0  0  0  0  0  0
    0.0000   -0.0000    0.0000 C   0  0  0  0  0  0  0  0  0  0  0  0
    0.0000    0.8250    0.0000 C   0  0  0  0  0  0  0  0  0  0  0  0
    0.7145   -1.2375    0.0000 N   0  0  0  0  0  0  0  0  0  0  0  0
    1.3819   -1.7224    0.0000 N   0  0  0  0  0  0  0  0  0  0  0  0
    1.1270   -2.5070    0.0000 C   0  0  0  0  0  0  0  0  0  0  0  0
    0.3020   -2.5070    0.0000 C   0  0  0  0  0  0  0  0  0  0  0  0
    0.0470   -1.7224    0.0000 C   0  0  0  0  0  0  0  0  0  0  0  0
   -0.7376   -1.4675    0.0000 C   0  0  0  0  0  0  0  0  0  0  0  0
   -1.3507   -2.0195    0.0000 C   0  0  0  0  0  0  0  0  0  0  0  0
   -2.1353   -1.7646    0.0000 C   0  0  0  0  0  0  0  0  0  0  0  0
   -2.3068   -0.9576    0.0000 C   0  0  0  0  0  0  0  0  0  0  0  0
   -3.0915   -0.7027    0.0000 Cl  0  0  0  0  0  0  0  0  0  0  0  0
   -1.6937   -0.4056    0.0000 C   0  0  0  0  0  0  0  0  0  0  0  0
   -0.9091   -0.6605    0.0000 C   0  0  0  0  0  0  0  0  0  0  0  0
    1.6119   -3.1745    0.0000 C   0  0  0  0  0  0  0  0  0  0  0  0
    2.0968   -3.8419    0.0000 F   0  0  0  0  0  0  0  0  0  0  0  0
    0.9445   -3.6594    0.0000 F   0  0  0  0  0  0  0  0  0  0  0  0
    2.2793   -2.6896    0.0000 F   0  0  0  0  0  0  0  0  0  0  0  0
  1  2  1  0  0  0  0
  2  3  1  0  0  0  0
  3  4  4  0  0  0  0
  4  5  4  0  0  0  0
  5  6  4  0  0  0  0
  6  7  4  0  0  0  0
  7  8  4  0  0  0  0
  3  8  4  0  0  0  0
  6  9  1  0  0  0  0
  9 10  4  0  0  0  0
 10 11  4  0  0  0  0
 11 12  4  0  0  0  0
 12 13  4  0  0  0  0
  9 13  4  0  0  0  0
 13 14  1  0  0  0  0
 14 15  4  0  0  0  0
 15 16  4  0  0  0  0
 16 17  4  0  0  0  0
 17 18  1  0  0  0  0
 17 19  4  0  0  0  0
 19 20  4  0  0  0  0
 14 20  4  0  0  0  0
 11 21  1  0  0  0  0
 21 22  1  0  0  0  0
 21 23  1  0  0  0  0
 21 24  1  0  0  0  0
M  END

> <ChembankId>
3177475

> <SMILES>
COc1ccc(cc1)n2nc(cc2c3ccc(Cl)cc3)C(F)(F)F

> <InChI>
1/C17H12ClF3N2O/c1-24-14-8-6-13(7-9-14)23-15(10-16(22-23)17(19,20)21)11-2-4-12(18)5-3-11/h2-10H,1H3

$$$$
3061617
  Marvin  11101114202D          

 24 25  0  0  0  0            999 V2000
    7.8592   -5.3625    0.0000 O   0  0  0  0  0  0  0  0  0  0  0  0
    7.8592   -6.1875    0.0000 C   0  0  0  0  0  0  0  0  0  0  0  0
    7.1447   -6.6000    0.0000 C   0  0  0  0  0  0  0  0  0  0  0  0
    6.4302   -6.1875    0.0000 N   0  0  0  0  0  0  0  0  0  0  0  0
    5.7158   -6.6000    0.0000 C   0  0  0  0  0  0  0  0  0  0  0  0
    5.0013   -6.1875    0.0000 C   0  0  0  0  0  0  0  0  0  0  0  0
    4.2868   -6.6000    0.0000 N   0  0  0  0  0  0  0  0  0  0  0  0
    3.5724   -6.1875    0.0000 C   0  0  0  0  0  0  0  0  0  0  0  0
    3.5724   -5.3625    0.0000 O   0  0  0  0  0  0  0  0  0  0  0  0
    2.8579   -6.6000    0.0000 N   0  0  0  0  0  0  0  0  0  0  0  0
    2.8579   -7.4250    0.0000 C   0  0  0  0  0  0  0  0  0  0  0  0
    2.1434   -7.8375    0.0000 C   0  0  0  0  0  0  0  0  0  0  0  0
    1.4289   -7.4250    0.0000 O   0  0  0  0  0  0  0  0  0  0  0  0
    1.4289   -6.6000    0.0000 C   0  0  0  0  0  0  0  0  0  0  0  0
    2.1434   -6.1875    0.0000 C   0  0  0  0  0  0  0  0  0  0  0  0
    8.5737   -6.6000    0.0000 C   0  0  0  0  0  0  0  0  0  0  0  0
    9.2881   -6.1875    0.0000 O   0  0  0  0  0  0  0  0  0  0  0  0
   10.0026   -6.6000    0.0000 C   0  0  0  0  0  0  0  0  0  0  0  0
   10.7171   -6.1875    0.0000 C   0  0  0  0  0  0  0  0  0  0  0  0
   11.4315   -6.6000    0.0000 C   0  0  0  0  0  0  0  0  0  0  0  0
   11.4315   -7.4250    0.0000 C   0  0  0  0  0  0  0  0  0  0  0  0
   12.1460   -7.8375    0.0000 O   0  0  0  0  0  0  0  0  0  0  0  0
   10.7171   -7.8375    0.0000 C   0  0  0  0  0  0  0  0  0  0  0  0
   10.0026   -7.4250    0.0000 C   0  0  0  0  0  0  0  0  0  0  0  0
  1  2  1  0  0  0  0
  2  3  1  0  0  0  0
  3  4  1  0  0  0  0
  4  5  1  0  0  0  0
  5  6  1  0  0  0  0
  6  7  1  0  0  0  0
  7  8  1  0  0  0  0
  8  9  2  0  0  0  0
  8 10  1  0  0  0  0
 10 11  1  0  0  0  0
 11 12  1  0  0  0  0
 12 13  1  0  0  0  0
 13 14  1  0  0  0  0
 14 15  1  0  0  0  0
 10 15  1  0  0  0  0
  2 16  1  0  0  0  0
 16 17  1  0  0  0  0
 17 18  1  0  0  0  0
 18 19  4  0  0  0  0
 19 20  4  0  0  0  0
 20 21  4  0  0  0  0
 21 22  1  0  0  0  0
 21 23  4  0  0  0  0
 23 24  4  0  0  0  0
 18 24  4  0  0  0  0
M  END

> <ChembankId>
3061617

> <SMILES>
OC(CNCCNC(=O)N1CCOCC1)COc2ccc(O)cc2

> <InChI>
1/C16H25N3O5/c20-13-1-3-15(4-2-13)24-12-14(21)11-17-5-6-18-16(22)19-7-9-23-10-8-19/h1-4,14,17,20-21H,5-12H2,(H,18,22)

$$$$
907524
  Marvin  11101114202D          

 22 23  0  0  0  0            999 V2000
    0.0000   -2.4750    0.0000 C   0  0  0  0  0  0  0  0  0  0  0  0
    0.7145   -2.8875    0.0000 C   0  0  0  0  0  0  0  0  0  0  0  0
    1.4289   -2.4750    0.0000 C   0  0  0  0  0  0  0  0  0  0  0  0
    2.1434   -2.8875    0.0000 C   0  0  0  0  0  0  0  0  0  0  0  0
    2.8579   -2.4750    0.0000 N   0  0  0  0  0  0  0  0  0  0  0  0
    3.5724   -2.8875    0.0000 C   0  0  0  0  0  0  0  0  0  0  0  0
    4.2868   -2.4750    0.0000 C   0  0  0  0  0  0  0  0  0  0  0  0
    4.2868   -1.6500    0.0000 C   0  0  0  0  0  0  0  0  0  0  0  0
    5.0013   -1.2375    0.0000 O   0  0  0  0  0  0  0  0  0  0  0  0
    3.5724   -1.2375    0.0000 O   0  0  0  0  0  0  0  0  0  0  0  0
    3.5724   -0.4125    0.0000 C   0  0  0  0  0  0  0  0  0  0  0  0
    4.2868   -0.0000    0.0000 C   0  0  0  0  0  0  0  0  0  0  0  0
    5.0013   -2.8875    0.0000 C   0  0  0  0  0  0  0  0  0  0  0  0
    5.7158   -2.4750    0.0000 C   0  0  0  0  0  0  0  0  0  0  0  0
    5.0013   -3.7125    0.0000 N   0  0  0  0  0  0  0  0  0  0  0  0
    4.2868   -4.1250    0.0000 C   0  0  0  0  0  0  0  0  0  0  0  0
    4.1153   -4.9320    0.0000 N   0  0  0  0  0  0  0  0  0  0  0  0
    4.6673   -5.5451    0.0000 C   0  0  0  0  0  0  0  0  0  0  0  0
    4.4124   -6.3297    0.0000 C   0  0  0  0  0  0  0  0  0  0  0  0
    3.2948   -5.0182    0.0000 N   0  0  0  0  0  0  0  0  0  0  0  0
    2.9593   -4.2645    0.0000 C   0  0  0  0  0  0  0  0  0  0  0  0
    3.5724   -3.7125    0.0000 C   0  0  0  0  0  0  0  0  0  0  0  0
  1  2  1  0  0  0  0
  2  3  1  0  0  0  0
  3  4  1  0  0  0  0
  4  5  1  0  0  0  0
  5  6  1  0  0  0  0
  6  7  4  0  0  0  0
  7  8  1  0  0  0  0
  8  9  2  0  0  0  0
  8 10  1  0  0  0  0
 10 11  1  0  0  0  0
 11 12  1  0  0  0  0
  7 13  4  0  0  0  0
 13 14  1  0  0  0  0
 13 15  4  0  0  0  0
 15 16  4  0  0  0  0
 16 17  4  0  0  0  0
 17 18  1  0  0  0  0
 18 19  1  0  0  0  0
 17 20  4  0  0  0  0
 20 21  4  0  0  0  0
 21 22  4  0  0  0  0
  6 22  4  0  0  0  0
 16 22  4  0  0  0  0
M  END

> <ChembankId>
907524

> <SMILES>
CCCCNc1c(C(=O)OCC)c(C)nc2n(CC)ncc12

> <InChI>
1/C16H24N4O2/c1-5-8-9-17-14-12-10-18-20(6-2)15(12)19-11(4)13(14)16(21)22-7-3/h10H,5-9H2,1-4H3,(H,17,19)

$$$$
1022907
  Marvin  11101114202D          

 14 15  0  0  0  0            999 V2000
   -0.7145   -0.4125    0.0000 C   0  0  0  0  0  0  0  0  0  0  0  0
    0.0000    0.0000    0.0000 C   0  0  0  0  0  0  0  0  0  0  0  0
    0.0000    0.8250    0.0000 O   0  0  0  0  0  0  0  0  0  0  0  0
    0.7145   -0.4125    0.0000 C   0  0  0  0  0  0  0  0  0  0  0  0
    1.4289    0.0000    0.0000 C   0  0  0  0  0  0  0  0  0  0  0  0
    2.1434   -0.4125    0.0000 C   0  0  0  0  0  0  0  0  0  0  0  0
    2.8579    0.0000    0.0000 C   0  0  0  0  0  0  0  0  0  0  0  0
    3.5724   -0.4125    0.0000 C   0  0  0  0  0  0  0  0  0  0  0  0
    3.5724   -1.2375    0.0000 C   0  0  0  0  0  0  0  0  0  0  0  0
    2.8579   -1.6500    0.0000 C   0  0  0  0  0  0  0  0  0  0  0  0
    2.1434   -1.2375    0.0000 C   0  0  0  0  0  0  0  0  0  0  0  0
    1.4289   -1.6500    0.0000 O   0  0  0  0  0  0  0  0  0  0  0  0
    0.7145   -1.2375    0.0000 C   0  0  0  0  0  0  0  0  0  0  0  0
    0.0000   -1.6500    0.0000 O   0  0  0  0  0  0  0  0  0  0  0  0
  1  2  1  0  0  0  0
  2  3  2  0  0  0  0
  2  4  1  0  0  0  0
  4  5  4  0  0  0  0
  5  6  4  0  0  0  0
  6  7  4  0  0  0  0
  7  8  4  0  0  0  0
  8  9  4  0  0  0  0
  9 10  4  0  0  0  0
 10 11  4  0  0  0  0
  6 11  4  0  0  0  0
 11 12  4  0  0  0  0
 12 13  4  0  0  0  0
  4 13  4  0  0  0  0
 13 14  2  0  0  0  0
M  END

> <ChembankId>
1022907

> <SMILES>
CC(=O)c1cc2ccccc2oc1=O

> <InChI>
1/C11H8O3/c1-7(12)9-6-8-4-2-3-5-10(8)14-11(9)13/h2-6H,1H3

$$$$
3046
  Marvin  11101114202D          

 30 33  0  0  1  0            999 V2000
   -0.1512    2.3914    0.0000 C   0  0  0  0  0  0  0  0  0  0  0  0
   -0.8863    2.0169    0.0000 C   0  0  0  0  0  0  0  0  0  0  0  0
   -1.6213    2.3914    0.0000 O   0  0  0  0  0  0  0  0  0  0  0  0
   -2.2047    1.8080    0.0000 N   0  0  0  0  0  0  0  0  0  0  0  0
   -1.8302    1.0730    0.0000 C   0  0  0  0  0  0  0  0  0  0  0  0
   -1.0153    1.2020    0.0000 C   0  0  0  0  0  0  0  0  0  0  0  0
   -0.4319    0.6187    0.0000 C   0  0  0  0  0  0  0  0  0  0  0  0
   -0.6455   -0.1782    0.0000 O   0  0  0  0  0  0  0  0  0  0  0  0
    0.3649    0.8322    0.0000 N   0  0  0  0  0  0  0  0  0  0  0  0
    0.9483    0.2488    0.0000 C   0  0  1  0  0  0  0  0  0  0  0  0
    1.7733    0.2488    0.0000 C   0  0  1  0  0  0  0  0  0  0  0  0
    2.5579    0.5038    0.0000 S   0  0  0  0  0  0  0  0  0  0  0  0
    3.0428   -0.1637    0.0000 C   0  0  0  0  0  0  0  0  0  0  0  0
    3.6559    0.3884    0.0000 C   0  0  0  0  0  0  0  0  0  0  0  0
    3.6559   -0.7157    0.0000 C   0  0  0  0  0  0  0  0  0  0  0  0
    2.5579   -0.8311    0.0000 C   0  0  1  0  0  0  0  0  0  0  0  0
    1.7733   -0.5762    0.0000 N   0  0  0  0  0  0  0  0  0  0  0  0
    0.9483   -0.5762    0.0000 C   0  0  0  0  0  0  0  0  0  0  0  0
    0.3649   -1.1595    0.0000 O   0  0  0  0  0  0  0  0  0  0  0  0
    2.8129   -1.6157    0.0000 C   0  0  0  0  0  0  0  0  0  0  0  0
    3.6198   -1.7873    0.0000 O   0  0  0  0  0  0  0  0  0  0  0  0
    2.2608   -2.2288    0.0000 O   0  0  0  0  0  0  0  0  0  0  0  0
   -2.2047    0.3379    0.0000 C   0  0  0  0  0  0  0  0  0  0  0  0
   -1.7554   -0.3540    0.0000 C   0  0  0  0  0  0  0  0  0  0  0  0
   -0.9315   -0.3108    0.0000 F   0  0  0  0  0  0  0  0  0  0  0  0
   -2.1299   -1.0891    0.0000 C   0  0  0  0  0  0  0  0  0  0  0  0
   -2.9538   -1.1323    0.0000 C   0  0  0  0  0  0  0  0  0  0  0  0
   -3.4031   -0.4404    0.0000 C   0  0  0  0  0  0  0  0  0  0  0  0
   -3.0286    0.2947    0.0000 C   0  0  0  0  0  0  0  0  0  0  0  0
   -3.4779    0.9866    0.0000 Cl  0  0  0  0  0  0  0  0  0  0  0  0
  1  2  1  0  0  0  0
  2  3  4  0  0  0  0
  3  4  4  0  0  0  0
  4  5  4  0  0  0  0
  5  6  4  0  0  0  0
  2  6  4  0  0  0  0
  6  7  1  0  0  0  0
  7  8  2  0  0  0  0
  7  9  1  0  0  0  0
 10  9  1  1  0  0  0
 10 11  1  0  0  0  0
 11 12  1  0  0  0  0
 12 13  1  0  0  0  0
 13 14  1  0  0  0  0
 13 15  1  0  0  0  0
 13 16  1  0  0  0  0
 16 17  1  0  0  0  0
 11 17  1  1  0  0  0
 17 18  1  0  0  0  0
 10 18  1  0  0  0  0
 18 19  2  0  0  0  0
 16 20  1  6  0  0  0
 20 21  2  0  0  0  0
 20 22  1  0  0  0  0
  5 23  1  0  0  0  0
 23 24  4  0  0  0  0
 24 25  1  0  0  0  0
 24 26  4  0  0  0  0
 26 27  4  0  0  0  0
 27 28  4  0  0  0  0
 28 29  4  0  0  0  0
 23 29  4  0  0  0  0
 29 30  1  0  0  0  0
M  END

> <ChembankId>
3046

> <SMILES>
Cc1onc(c1C(=O)N[C@H]2[C@H]3SC(C)(C)[C@@H](N3C2=O)C(=O)O)c4c(F)cccc4Cl

> <InChI>
1/C19H17ClFN3O5S/c1-7-10(12(23-29-7)11-8(20)5-4-6-9(11)21)15(25)22-13-16(26)24-14(18(27)28)19(2,3)30-17(13)24/h4-6,13-14,17H,1-3H3,(H,22,25)(H,27,28)/t13-,14+,17+/m1/s1

$$$$
2080909
  Marvin  11101114202D          

 33 35  0  0  0  0            999 V2000
    1.8734    6.6748    0.0000 C   0  0  0  0  0  0  0  0  0  0  0  0
    2.6835    6.5189    0.0000 C   0  0  0  0  0  0  0  0  0  0  0  0
    2.9535    5.7393    0.0000 C   0  0  0  0  0  0  0  0  0  0  0  0
    3.7637    5.5834    0.0000 C   0  0  0  0  0  0  0  0  0  0  0  0
    4.0337    4.8039    0.0000 N   0  0  0  0  0  0  0  0  0  0  0  0
    3.4936    4.1802    0.0000 C   0  0  0  0  0  0  0  0  0  0  0  0
    2.6835    4.3361    0.0000 C   0  0  0  0  0  0  0  0  0  0  0  0
    2.1434    3.7125    0.0000 C   0  0  0  0  0  0  0  0  0  0  0  0
    1.3333    3.8684    0.0000 C   0  0  0  0  0  0  0  0  0  0  0  0
    4.8439    4.6480    0.0000 C   0  0  0  0  0  0  0  0  0  0  0  0
    5.1139    3.8684    0.0000 C   0  0  0  0  0  0  0  0  0  0  0  0
    5.9240    3.7125    0.0000 C   0  0  0  0  0  0  0  0  0  0  0  0
    6.4641    4.3361    0.0000 O   0  0  0  0  0  0  0  0  0  0  0  0
    6.1941    2.9329    0.0000 C   0  0  0  0  0  0  0  0  0  0  0  0
    7.0042    2.7770    0.0000 C   0  0  0  0  0  0  0  0  0  0  0  0
    7.2743    1.9975    0.0000 C   0  0  0  0  0  0  0  0  0  0  0  0
    8.0844    1.8416    0.0000 C   0  0  0  0  0  0  0  0  0  0  0  0
    8.6245    2.4652    0.0000 Cl  0  0  0  0  0  0  0  0  0  0  0  0
    8.3544    1.0620    0.0000 C   0  0  0  0  0  0  0  0  0  0  0  0
    7.8144    0.4384    0.0000 C   0  0  0  0  0  0  0  0  0  0  0  0
    8.0844   -0.3412    0.0000 Cl  0  0  0  0  0  0  0  0  0  0  0  0
    7.0042    0.5943    0.0000 C   0  0  0  0  0  0  0  0  0  0  0  0
    6.7342    1.3738    0.0000 C   0  0  0  0  0  0  0  0  0  0  0  0
    5.9240    1.5298    0.0000 C   0  0  0  0  0  0  0  0  0  0  0  0
    5.3839    0.9061    0.0000 C   0  0  0  0  0  0  0  0  0  0  0  0
    4.5738    1.0620    0.0000 C   0  0  0  0  0  0  0  0  0  0  0  0
    4.3038    1.8416    0.0000 C   0  0  0  0  0  0  0  0  0  0  0  0
    4.8439    2.4652    0.0000 C   0  0  0  0  0  0  0  0  0  0  0  0
    5.6540    2.3093    0.0000 C   0  0  0  0  0  0  0  0  0  0  0  0
    4.0337    0.4384    0.0000 C   0  0  0  0  0  0  0  0  0  0  0  0
    3.4936   -0.1853    0.0000 F   0  0  0  0  0  0  0  0  0  0  0  0
    3.4101    0.9785    0.0000 F   0  0  0  0  0  0  0  0  0  0  0  0
    4.6574   -0.1017    0.0000 F   0  0  0  0  0  0  0  0  0  0  0  0
  1  2  1  0  0  0  0
  2  3  1  0  0  0  0
  3  4  1  0  0  0  0
  4  5  1  0  0  0  0
  5  6  1  0  0  0  0
  6  7  1  0  0  0  0
  7  8  1  0  0  0  0
  8  9  1  0  0  0  0
  5 10  1  0  0  0  0
 10 11  1  0  0  0  0
 11 12  1  0  0  0  0
 12 13  1  0  0  0  0
 12 14  1  0  0  0  0
 14 15  4  0  0  0  0
 15 16  4  0  0  0  0
 16 17  4  0  0  0  0
 17 18  1  0  0  0  0
 17 19  4  0  0  0  0
 19 20  4  0  0  0  0
 20 21  1  0  0  0  0
 20 22  4  0  0  0  0
 22 23  4  0  0  0  0
 16 23  4  0  0  0  0
 23 24  4  0  0  0  0
 24 25  4  0  0  0  0
 25 26  4  0  0  0  0
 26 27  4  0  0  0  0
 27 28  4  0  0  0  0
 28 29  4  0  0  0  0
 14 29  4  0  0  0  0
 24 29  4  0  0  0  0
 26 30  1  0  0  0  0
 30 31  1  0  0  0  0
 30 32  1  0  0  0  0
 30 33  1  0  0  0  0
M  END

> <ChembankId>
2080909

> <SMILES>
CCCCN(CCCC)CCC(O)c1cc2c(Cl)cc(Cl)cc2c3cc(ccc13)C(F)(F)F

> <InChI>
1/C26H30Cl2F3NO/c1-3-5-10-32(11-6-4-2)12-9-25(33)23-16-22-21(14-18(27)15-24(22)28)20-13-17(26(29,30)31)7-8-19(20)23/h7-8,13-16,25,33H,3-6,9-12H2,1-2H3

$$$$
3179848
  Marvin  11101114202D          

 24 26  0  0  1  0            999 V2000
    5.3780    3.4264    0.0000 C   0  0  0  0  0  0  0  0  0  0  0  0
    5.9824    2.8648    0.0000 C   0  0  0  0  0  0  0  0  0  0  0  0
    5.7982    2.0606    0.0000 C   0  0  0  0  0  0  0  0  0  0  0  0
    6.4026    1.4990    0.0000 C   0  0  0  0  0  0  0  0  0  0  0  0
    6.2184    0.6948    0.0000 C   0  0  0  0  0  0  0  0  0  0  0  0
    5.4299    0.4522    0.0000 C   0  0  0  0  0  0  0  0  0  0  0  0
    6.8228    0.1333    0.0000 C   0  0  1  0  0  0  0  0  0  0  0  0
    7.2709    0.8260    0.0000 C   0  0  0  0  0  0  0  0  0  0  0  0
    7.5828   -0.1877    0.0000 O   0  0  0  0  0  0  0  0  0  0  0  0
    6.6386   -0.6709    0.0000 C   0  0  0  0  0  0  0  0  0  0  0  0
    7.2430   -1.2325    0.0000 O   0  0  0  0  0  0  0  0  0  0  0  0
    5.8501   -0.9135    0.0000 O   0  0  0  0  0  0  0  0  0  0  0  0
    5.2458   -0.3520    0.0000 C   0  0  0  0  0  0  0  0  0  0  0  0
    4.4572   -0.5946    0.0000 C   0  0  0  0  0  0  0  0  0  0  0  0
    3.9619   -1.2543    0.0000 C   0  0  0  0  0  0  0  0  0  0  0  0
    3.1814   -0.9871    0.0000 C   0  0  0  0  0  0  0  0  0  0  0  0
    3.1943   -0.1622    0.0000 N   0  0  0  0  0  0  0  0  0  0  0  0
    2.7199    0.5127    0.0000 C   0  0  0  0  0  0  0  0  0  0  0  0
    3.2152    1.1725    0.0000 C   0  0  0  0  0  0  0  0  0  0  0  0
    4.0370    0.7712    0.0000 C   0  0  1  0  0  0  0  0  0  0  0  0
    4.8255    1.0138    0.0000 O   0  0  0  0  0  0  0  0  0  0  0  0
    5.0097    1.8180    0.0000 C   0  0  0  0  0  0  0  0  0  0  0  0
    4.4053    2.3796    0.0000 O   0  0  0  0  0  0  0  0  0  0  0  0
    3.8529   -0.0330    0.0000 C   0  0  1  0  0  0  0  0  0  0  0  0
  1  2  1  0  0  0  0
  2  3  2  0  0  0  0
  3  4  1  0  0  0  0
  4  5  1  0  0  0  0
  5  6  2  0  0  0  0
  5  7  1  0  0  0  0
  7  8  1  6  0  0  0
  7  9  1  1  0  0  0
  7 10  1  0  0  0  0
 10 11  2  0  0  0  0
 10 12  1  0  0  0  0
 12 13  1  0  0  0  0
 13 14  1  0  0  0  0
 14 15  2  0  0  0  0
 15 16  1  0  0  0  0
 16 17  1  0  0  0  0
 17 18  1  0  0  0  0
 18 19  1  0  0  0  0
 20 19  1  1  0  0  0
 20 21  1  0  0  0  0
 21 22  1  0  0  0  0
  3 22  1  0  0  0  0
 22 23  2  0  0  0  0
 20 24  1  0  0  0  0
 24 17  1  1  0  0  0
 14 24  1  0  0  0  0
M  END

> <ChembankId>
3179848

> <SMILES>
C/C=C\1/CC(=C)[C@@](C)(O)C(=O)OCC2=CCN3CC[C@@H](OC1=O)[C@H]32

> <InChI>
1/C18H23NO5/c1-4-12-9-11(2)18(3,22)17(21)23-10-13-5-7-19-8-6-14(15(13)19)24-16(12)20/h4-5,14-15,22H,2,6-10H2,1,3H3

$$$$
3180327
  Marvin  11101114202D          

 28 32  0  0  1  0            999 V2000
   -0.6397   -5.5838    0.0000 C   0  0  0  0  0  0  0  0  0  0  0  0
   -0.8946   -4.7992    0.0000 O   0  0  0  0  0  0  0  0  0  0  0  0
   -0.3426   -4.1861    0.0000 C   0  0  0  0  0  0  0  0  0  0  0  0
   -0.5975   -3.4015    0.0000 C   0  0  0  0  0  0  0  0  0  0  0  0
   -0.0455   -2.7884    0.0000 C   0  0  0  0  0  0  0  0  0  0  0  0
    0.7615   -2.9599    0.0000 C   0  0  0  0  0  0  0  0  0  0  0  0
    1.4289   -2.4750    0.0000 C   0  0  0  0  0  0  0  0  0  0  0  0
    2.0964   -2.9599    0.0000 O   0  0  0  0  0  0  0  0  0  0  0  0
    1.8414   -3.7445    0.0000 C   0  0  0  0  0  0  0  0  0  0  0  0
    2.3264   -4.4120    0.0000 O   0  0  0  0  0  0  0  0  0  0  0  0
    1.0164   -3.7445    0.0000 C   0  0  0  0  0  0  0  0  0  0  0  0
    0.4644   -4.3576    0.0000 C   0  0  0  0  0  0  0  0  0  0  0  0
    0.7193   -5.1423    0.0000 O   0  0  0  0  0  0  0  0  0  0  0  0
    0.1673   -5.7554    0.0000 C   0  0  0  0  0  0  0  0  0  0  0  0
    1.4289   -1.6500    0.0000 C   0  0  2  0  0  0  0  0  0  0  0  0
    0.7145   -1.2375    0.0000 N   0  0  0  0  0  0  0  0  0  0  0  0
    0.0000   -1.6500    0.0000 C   0  0  0  0  0  0  0  0  0  0  0  0
    0.7145   -0.4125    0.0000 C   0  0  0  0  0  0  0  0  0  0  0  0
    1.4289    0.0000    0.0000 C   0  0  0  0  0  0  0  0  0  0  0  0
    2.1434   -0.4125    0.0000 C   0  0  0  0  0  0  0  0  0  0  0  0
    2.8579    0.0000    0.0000 C   0  0  0  0  0  0  0  0  0  0  0  0
    3.5724   -0.4125    0.0000 C   0  0  0  0  0  0  0  0  0  0  0  0
    4.3570   -0.1576    0.0000 O   0  0  0  0  0  0  0  0  0  0  0  0
    4.8419   -0.8250    0.0000 C   0  0  0  0  0  0  0  0  0  0  0  0
    4.3570   -1.4924    0.0000 O   0  0  0  0  0  0  0  0  0  0  0  0
    3.5724   -1.2375    0.0000 C   0  0  0  0  0  0  0  0  0  0  0  0
    2.8579   -1.6500    0.0000 C   0  0  0  0  0  0  0  0  0  0  0  0
    2.1434   -1.2375    0.0000 C   0  0  0  0  0  0  0  0  0  0  0  0
  1  2  1  0  0  0  0
  2  3  1  0  0  0  0
  3  4  4  0  0  0  0
  4  5  4  0  0  0  0
  5  6  4  0  0  0  0
  6  7  1  0  0  0  0
  7  8  1  0  0  0  0
  8  9  1  0  0  0  0
  9 10  2  0  0  0  0
  9 11  1  0  0  0  0
  6 11  4  0  0  0  0
 11 12  4  0  0  0  0
  3 12  4  0  0  0  0
 12 13  1  0  0  0  0
 13 14  1  0  0  0  0
 15  7  1  6  0  0  0
 15 16  1  0  0  0  0
 16 17  1  0  0  0  0
 16 18  1  0  0  0  0
 18 19  1  0  0  0  0
 19 20  1  0  0  0  0
 20 21  4  0  0  0  0
 21 22  4  0  0  0  0
 22 23  1  0  0  0  0
 23 24  1  0  0  0  0
 24 25  1  0  0  0  0
 25 26  1  0  0  0  0
 22 26  4  0  0  0  0
 26 27  4  0  0  0  0
 27 28  4  0  0  0  0
 15 28  1  0  0  0  0
 20 28  4  0  0  0  0
M  END

> <ChembankId>
3180327

> <SMILES>
COc1ccc2[C@H](OC(=O)c2c1OC)[C@@H]3N(C)CCc4cc5OCOc5cc34

> <InChI>
1/C21H21NO6/c1-22-7-6-11-8-15-16(27-10-26-15)9-13(11)18(22)19-12-4-5-14(24-2)20(25-3)17(12)21(23)28-19/h4-5,8-9,18-19H,6-7,10H2,1-3H3

$$$$
1025381
  Marvin  11101114202D          

 25 29  0  0  0  0            999 V2000
    2.2354   -0.0792    0.0000 C   0  0  0  0  0  0  0  0  0  0  0  0
    2.6370   -0.7999    0.0000 O   0  0  0  0  0  0  0  0  0  0  0  0
    3.4619   -0.8125    0.0000 C   0  0  0  0  0  0  0  0  0  0  0  0
    3.8635   -1.5331    0.0000 C   0  0  0  0  0  0  0  0  0  0  0  0
    4.6884   -1.5457    0.0000 C   0  0  0  0  0  0  0  0  0  0  0  0
    5.1117   -0.8375    0.0000 C   0  0  0  0  0  0  0  0  0  0  0  0
    5.9366   -0.8501    0.0000 C   0  0  0  0  0  0  0  0  0  0  0  0
    6.3600   -0.1420    0.0000 C   0  0  0  0  0  0  0  0  0  0  0  0
    5.9584    0.5787    0.0000 N   0  0  0  0  0  0  0  0  0  0  0  0
    6.3817    1.2868    0.0000 C   0  0  0  0  0  0  0  0  0  0  0  0
    7.2066    1.2743    0.0000 C   0  0  0  0  0  0  0  0  0  0  0  0
    7.6082    0.5536    0.0000 C   0  0  0  0  0  0  0  0  0  0  0  0
    8.4331    0.5410    0.0000 C   0  0  0  0  0  0  0  0  0  0  0  0
    8.8347   -0.1796    0.0000 C   0  0  0  0  0  0  0  0  0  0  0  0
    9.6389   -0.3634    0.0000 O   0  0  0  0  0  0  0  0  0  0  0  0
    9.7127   -1.1851    0.0000 C   0  0  0  0  0  0  0  0  0  0  0  0
    8.9540   -1.5092    0.0000 O   0  0  0  0  0  0  0  0  0  0  0  0
    8.4113   -0.8877    0.0000 C   0  0  0  0  0  0  0  0  0  0  0  0
    7.5864   -0.8752    0.0000 C   0  0  0  0  0  0  0  0  0  0  0  0
    7.1849   -0.1545    0.0000 C   0  0  0  0  0  0  0  0  0  0  0  0
    5.1335    0.5912    0.0000 C   0  0  0  0  0  0  0  0  0  0  0  0
    4.7101   -0.1169    0.0000 C   0  0  0  0  0  0  0  0  0  0  0  0
    3.8852   -0.1043    0.0000 C   0  0  0  0  0  0  0  0  0  0  0  0
    3.4837    0.6163    0.0000 O   0  0  0  0  0  0  0  0  0  0  0  0
    2.6587    0.6289    0.0000 C   0  0  0  0  0  0  0  0  0  0  0  0
  1  2  1  0  0  0  0
  2  3  1  0  0  0  0
  3  4  4  0  0  0  0
  4  5  4  0  0  0  0
  5  6  4  0  0  0  0
  6  7  1  0  0  0  0
  7  8  1  0  0  0  0
  8  9  1  0  0  0  0
  9 10  1  0  0  0  0
 10 11  1  0  0  0  0
 11 12  1  0  0  0  0
 12 13  4  0  0  0  0
 13 14  4  0  0  0  0
 14 15  1  0  0  0  0
 15 16  1  0  0  0  0
 16 17  1  0  0  0  0
 17 18  1  0  0  0  0
 14 18  4  0  0  0  0
 18 19  4  0  0  0  0
 19 20  4  0  0  0  0
  8 20  1  0  0  0  0
 12 20  4  0  0  0  0
  9 21  1  0  0  0  0
 21 22  1  0  0  0  0
  6 22  4  0  0  0  0
 22 23  4  0  0  0  0
  3 23  4  0  0  0  0
 23 24  1  0  0  0  0
 24 25  1  0  0  0  0
M  END

> <ChembankId>
1025381

> <SMILES>
COc1ccc2CC3N(CCc4cc5OCOc5cc34)Cc2c1OC

> <InChI>
1/C20H21NO4/c1-22-17-4-3-12-7-16-14-9-19-18(24-11-25-19)8-13(14)5-6-21(16)10-15(12)20(17)23-2/h3-4,8-9,16H,5-7,10-11H2,1-2H3

$$$$
1039072
  Marvin  11101114202D          

 11 12  0  0  0  0            999 V2000
    2.1310    0.5900    0.0000 C   0  0  0  0  0  0  0  0  0  0  0  0
    1.7132   -0.1214    0.0000 N   0  0  0  0  0  0  0  0  0  0  0  0
    1.1634   -0.5574    0.0000 C   0  0  0  0  0  0  0  0  0  0  0  0
    0.2444   -0.5581    0.0000 C   0  0  0  0  0  0  0  0  0  0  0  0
    0.1175   -1.3600    0.0000 C   0  0  0  0  0  0  0  0  0  0  0  0
    0.6220   -0.9357    0.0000 C   0  0  0  0  0  0  0  0  0  0  0  0
    1.5820   -0.9250    0.0000 C   0  0  0  0  0  0  0  0  0  0  0  0
    1.6290   -1.9119    0.0000 C   0  0  0  0  0  0  0  0  0  0  0  0
    0.8127   -2.0914    0.0000 C   0  0  0  0  0  0  0  0  0  0  0  0
    0.1249   -2.5470    0.0000 O   0  0  0  0  0  0  0  0  0  0  0  0
    1.2248   -1.5105    0.0000 C   0  0  0  0  0  0  0  0  0  0  0  0
  1  2  1  0  0  0  0
  2  3  1  0  0  0  0
  3  4  1  0  0  0  0
  4  5  1  0  0  0  0
  5  6  1  0  0  0  0
  6  7  1  0  0  0  0
  2  7  1  0  0  0  0
  7  8  1  0  0  0  0
  8  9  1  0  0  0  0
  9 10  2  0  0  0  0
  9 11  1  0  0  0  0
  3 11  1  0  0  0  0
M  END

> <ChembankId>
1039072

> <SMILES>
CN1C2CCCC1CC(=O)C2

> <InChI>
1/C9H15NO/c1-10-7-3-2-4-8(10)6-9(11)5-7/h7-8H,2-6H2,1H3

$$$$
1053328
  Marvin  11101114202D          

 22 24  0  0  0  0            999 V2000
    5.7896   -0.4364    0.0000 C   0  0  0  0  0  0  0  0  0  0  0  0
    5.0883   -0.0018    0.0000 C   0  0  0  0  0  0  0  0  0  0  0  0
    4.3613   -0.3918    0.0000 C   0  0  0  0  0  0  0  0  0  0  0  0
    3.6601    0.0428    0.0000 C   0  0  0  0  0  0  0  0  0  0  0  0
    3.5995    0.8656    0.0000 C   0  0  0  0  0  0  0  0  0  0  0  0
    4.2295    1.3982    0.0000 O   0  0  0  0  0  0  0  0  0  0  0  0
    2.7983    1.0622    0.0000 N   0  0  0  0  0  0  0  0  0  0  0  0
    2.3637    0.3610    0.0000 N   0  0  0  0  0  0  0  0  0  0  0  0
    2.8963   -0.2691    0.0000 C   0  0  0  0  0  0  0  0  0  0  0  0
    2.6996   -1.0703    0.0000 O   0  0  0  0  0  0  0  0  0  0  0  0
    1.5391    0.3867    0.0000 C   0  0  0  0  0  0  0  0  0  0  0  0
    1.1045   -0.3145    0.0000 C   0  0  0  0  0  0  0  0  0  0  0  0
    0.2799   -0.2887    0.0000 C   0  0  0  0  0  0  0  0  0  0  0  0
   -0.1547   -0.9900    0.0000 C   0  0  0  0  0  0  0  0  0  0  0  0
   -0.1101    0.4383    0.0000 C   0  0  0  0  0  0  0  0  0  0  0  0
    0.3245    1.1395    0.0000 C   0  0  0  0  0  0  0  0  0  0  0  0
    1.1491    1.1137    0.0000 C   0  0  0  0  0  0  0  0  0  0  0  0
    1.5837    1.8150    0.0000 N   0  0  0  0  0  0  0  0  0  0  0  0
    2.4083    1.7892    0.0000 C   0  0  0  0  0  0  0  0  0  0  0  0
    2.8429    2.4905    0.0000 N   0  0  0  0  0  0  0  0  0  0  0  0
    3.6675    2.4647    0.0000 C   0  0  0  0  0  0  0  0  0  0  0  0
    2.4529    3.2175    0.0000 C   0  0  0  0  0  0  0  0  0  0  0  0
  1  2  1  0  0  0  0
  2  3  1  0  0  0  0
  3  4  1  0  0  0  0
  4  5  1  0  0  0  0
  5  6  2  0  0  0  0
  5  7  1  0  0  0  0
  7  8  1  0  0  0  0
  8  9  1  0  0  0  0
  4  9  1  0  0  0  0
  9 10  2  0  0  0  0
  8 11  1  0  0  0  0
 11 12  4  0  0  0  0
 12 13  4  0  0  0  0
 13 14  1  0  0  0  0
 13 15  4  0  0  0  0
 15 16  4  0  0  0  0
 16 17  4  0  0  0  0
 11 17  4  0  0  0  0
 17 18  1  0  0  0  0
 18 19  2  0  0  0  0
  7 19  1  0  0  0  0
 19 20  1  0  0  0  0
 20 21  1  0  0  0  0
 20 22  1  0  0  0  0
M  END

> <ChembankId>
1053328

> <SMILES>
CCCC1C(=O)N2N(C1=O)c3cc(C)ccc3N=C2N(C)C

> <InChI>
1/C16H20N4O2/c1-5-6-11-14(21)19-13-9-10(2)7-8-12(13)17-16(18(3)4)20(19)15(11)22/h7-9,11H,5-6H2,1-4H3

$$$$
1054667
  Marvin  11101114202D          

 25 27  0  0  0  0            999 V2000
    1.4289   -1.6500    0.0000 C   0  0  0  0  0  0  0  0  0  0  0  0
    1.4289   -2.4750    0.0000 N   0  0  0  0  0  0  0  0  0  0  0  0
    2.1434   -2.8875    0.0000 C   0  0  0  0  0  0  0  0  0  0  0  0
    2.8579   -2.4750    0.0000 C   0  0  0  0  0  0  0  0  0  0  0  0
    3.5724   -2.8875    0.0000 C   0  0  0  0  0  0  0  0  0  0  0  0
    3.5724   -3.7125    0.0000 O   0  0  0  0  0  0  0  0  0  0  0  0
    4.2868   -2.4750    0.0000 C   0  0  0  0  0  0  0  0  0  0  0  0
    4.2868   -1.6500    0.0000 C   0  0  0  0  0  0  0  0  0  0  0  0
    5.0013   -1.2375    0.0000 C   0  0  0  0  0  0  0  0  0  0  0  0
    5.7158   -1.6500    0.0000 C   0  0  0  0  0  0  0  0  0  0  0  0
    5.7158   -2.4750    0.0000 C   0  0  0  0  0  0  0  0  0  0  0  0
    5.0013   -2.8875    0.0000 C   0  0  0  0  0  0  0  0  0  0  0  0
    2.1434   -3.7125    0.0000 C   0  0  0  0  0  0  0  0  0  0  0  0
    1.4289   -4.1250    0.0000 C   0  0  0  0  0  0  0  0  0  0  0  0
    0.7145   -3.7125    0.0000 C   0  0  0  0  0  0  0  0  0  0  0  0
    0.7145   -2.8875    0.0000 C   0  0  0  0  0  0  0  0  0  0  0  0
    0.0000   -2.4750    0.0000 C   0  0  0  0  0  0  0  0  0  0  0  0
   -0.7145   -2.8875    0.0000 C   0  0  0  0  0  0  0  0  0  0  0  0
   -0.7145   -3.7125    0.0000 O   0  0  0  0  0  0  0  0  0  0  0  0
   -1.4289   -2.4750    0.0000 C   0  0  0  0  0  0  0  0  0  0  0  0
   -2.1434   -2.8875    0.0000 C   0  0  0  0  0  0  0  0  0  0  0  0
   -2.8579   -2.4750    0.0000 C   0  0  0  0  0  0  0  0  0  0  0  0
   -2.8579   -1.6500    0.0000 C   0  0  0  0  0  0  0  0  0  0  0  0
   -2.1434   -1.2375    0.0000 C   0  0  0  0  0  0  0  0  0  0  0  0
   -1.4289   -1.6500    0.0000 C   0  0  0  0  0  0  0  0  0  0  0  0
  1  2  1  0  0  0  0
  2  3  1  0  0  0  0
  3  4  1  0  0  0  0
  4  5  1  0  0  0  0
  5  6  1  0  0  0  0
  5  7  1  0  0  0  0
  7  8  4  0  0  0  0
  8  9  4  0  0  0  0
  9 10  4  0  0  0  0
 10 11  4  0  0  0  0
 11 12  4  0  0  0  0
  7 12  4  0  0  0  0
  3 13  1  0  0  0  0
 13 14  1  0  0  0  0
 14 15  1  0  0  0  0
 15 16  1  0  0  0  0
  2 16  1  0  0  0  0
 16 17  1  0  0  0  0
 17 18  1  0  0  0  0
 18 19  1  0  0  0  0
 18 20  1  0  0  0  0
 20 21  4  0  0  0  0
 21 22  4  0  0  0  0
 22 23  4  0  0  0  0
 23 24  4  0  0  0  0
 24 25  4  0  0  0  0
 20 25  4  0  0  0  0
M  END

> <ChembankId>
1054667

> <SMILES>
CN1C(CC(O)c2ccccc2)CCCC1CC(O)c3ccccc3

> <InChI>
1/C22H29NO2/c1-23-19(15-21(24)17-9-4-2-5-10-17)13-8-14-20(23)16-22(25)18-11-6-3-7-12-18/h2-7,9-12,19-22,24-25H,8,13-16H2,1H3

$$$$
3069519
  Marvin  11101114202D          

 22 24  0  0  1  0            999 V2000
    5.8365   -4.9351    0.0000 C   0  0  0  0  0  0  0  0  0  0  0  0
    5.0115   -4.9343    0.0000 O   0  0  0  0  0  0  0  0  0  0  0  0
    4.5997   -4.2194    0.0000 C   0  0  0  0  0  0  0  0  0  0  0  0
    3.7747   -4.2186    0.0000 C   0  0  0  0  0  0  0  0  0  0  0  0
    3.3629   -3.5037    0.0000 C   0  0  0  0  0  0  0  0  0  0  0  0
    3.7761   -2.7897    0.0000 C   0  0  0  0  0  0  0  0  0  0  0  0
    4.6011   -2.7905    0.0000 C   0  0  0  0  0  0  0  0  0  0  0  0
    5.0129   -3.5054    0.0000 C   0  0  0  0  0  0  0  0  0  0  0  0
    5.8379   -3.5062    0.0000 O   0  0  0  0  0  0  0  0  0  0  0  0
    6.2497   -4.2210    0.0000 C   0  0  0  0  0  0  0  0  0  0  0  0
    3.3643   -2.0748    0.0000 C   0  0  0  0  0  0  0  0  0  0  0  0
    3.7775   -1.3607    0.0000 O   0  0  0  0  0  0  0  0  0  0  0  0
    2.5393   -2.0740    0.0000 O   0  0  0  0  0  0  0  0  0  0  0  0
    2.1275   -1.3591    0.0000 C   0  0  2  0  0  0  0  0  0  0  0  0
    1.6113   -0.9304    0.0000 C   0  0  0  0  0  0  0  0  0  0  0  0
    0.6396   -0.9304    0.0000 C   0  0  2  0  0  0  0  0  0  0  0  0
    0.1197   -1.6427    0.0000 C   0  0  0  0  0  0  0  0  0  0  0  0
    0.7400   -1.2658    0.0000 C   0  0  0  0  0  0  0  0  0  0  0  0
    1.0605   -0.5572    0.0000 C   0  0  2  0  0  0  0  0  0  0  0  0
    1.9893   -0.5417    0.0000 C   0  0  0  0  0  0  0  0  0  0  0  0
    0.4999   -0.1173    0.0000 N   0  0  0  0  0  0  0  0  0  0  0  0
    0.0773    0.5912    0.0000 C   0  0  0  0  0  0  0  0  0  0  0  0
  1  2  1  0  0  0  0
  2  3  1  0  0  0  0
  3  4  4  0  0  0  0
  4  5  4  0  0  0  0
  5  6  4  0  0  0  0
  6  7  4  0  0  0  0
  7  8  4  0  0  0  0
  3  8  4  0  0  0  0
  8  9  1  0  0  0  0
  9 10  1  0  0  0  0
  6 11  1  0  0  0  0
 11 12  2  0  0  0  0
 11 13  1  0  0  0  0
 14 13  1  6  0  0  0
 14 15  1  0  0  0  0
 16 15  1  6  0  0  0
 16 17  1  0  0  0  0
 17 18  1  0  0  0  0
 18 19  1  0  0  0  0
 19 20  1  1  0  0  0
 14 20  1  0  0  0  0
 19 21  1  0  0  0  0
 16 21  1  0  0  0  0
 21 22  1  0  0  0  0
M  END

> <ChembankId>
3069519

> <SMILES>
COc1ccc(cc1OC)C(=O)O[C@@H]2C[C@@H]3CC[C@H](C2)N3C

> <InChI>
1/C17H23NO4/c1-18-12-5-6-13(18)10-14(9-12)22-17(19)11-4-7-15(20-2)16(8-11)21-3/h4,7-8,12-14H,5-6,9-10H2,1-3H3/t12-,13+,14-

$$$$
3069522
  Marvin  11101114202D          

 23 24  0  0  0  0            999 V2000
    2.1434   -1.2375    0.0000 C   0  0  0  0  0  0  0  0  0  0  0  0
    2.8579   -1.6500    0.0000 O   0  0  0  0  0  0  0  0  0  0  0  0
    2.8579   -2.4750    0.0000 C   0  0  0  0  0  0  0  0  0  0  0  0
    3.5724   -2.8875    0.0000 C   0  0  0  0  0  0  0  0  0  0  0  0
    3.5724   -3.7125    0.0000 C   0  0  0  0  0  0  0  0  0  0  0  0
    4.2868   -4.1250    0.0000 C   0  0  0  0  0  0  0  0  0  0  0  0
    4.2868   -4.9500    0.0000 C   0  0  0  0  0  0  0  0  0  0  0  0
    5.0013   -5.3625    0.0000 C   0  0  0  0  0  0  0  0  0  0  0  0
    5.7158   -4.9500    0.0000 O   0  0  0  0  0  0  0  0  0  0  0  0
    5.0013   -6.1875    0.0000 N   0  0  0  0  0  0  0  0  0  0  0  0
    5.7158   -6.6000    0.0000 C   0  0  0  0  0  0  0  0  0  0  0  0
    5.7158   -7.4250    0.0000 C   0  0  0  0  0  0  0  0  0  0  0  0
    5.0013   -7.8375    0.0000 C   0  0  0  0  0  0  0  0  0  0  0  0
    4.2868   -7.4250    0.0000 C   0  0  0  0  0  0  0  0  0  0  0  0
    4.2868   -6.6000    0.0000 C   0  0  0  0  0  0  0  0  0  0  0  0
    3.5724   -6.1875    0.0000 O   0  0  0  0  0  0  0  0  0  0  0  0
    2.8579   -4.1250    0.0000 C   0  0  0  0  0  0  0  0  0  0  0  0
    2.1434   -3.7125    0.0000 C   0  0  0  0  0  0  0  0  0  0  0  0
    1.4289   -4.1250    0.0000 O   0  0  0  0  0  0  0  0  0  0  0  0
    0.7145   -3.7125    0.0000 C   0  0  0  0  0  0  0  0  0  0  0  0
    2.1434   -2.8875    0.0000 C   0  0  0  0  0  0  0  0  0  0  0  0
    1.4289   -2.4750    0.0000 O   0  0  0  0  0  0  0  0  0  0  0  0
    0.7145   -2.8875    0.0000 C   0  0  0  0  0  0  0  0  0  0  0  0
  1  2  1  0  0  0  0
  2  3  1  0  0  0  0
  3  4  4  0  0  0  0
  4  5  4  0  0  0  0
  5  6  1  0  0  0  0
  6  7  2  0  0  0  0
  7  8  1  0  0  0  0
  8  9  2  0  0  0  0
  8 10  1  0  0  0  0
 10 11  1  0  0  0  0
 11 12  1  0  0  0  0
 12 13  1  0  0  0  0
 13 14  2  0  0  0  0
 14 15  1  0  0  0  0
 10 15  1  0  0  0  0
 15 16  2  0  0  0  0
  5 17  4  0  0  0  0
 17 18  4  0  0  0  0
 18 19  1  0  0  0  0
 19 20  1  0  0  0  0
 18 21  4  0  0  0  0
  3 21  4  0  0  0  0
 21 22  1  0  0  0  0
 22 23  1  0  0  0  0
M  END

> <ChembankId>
3069522

> <SMILES>
COc1cc(/C=C/C(=O)N2CCC=CC2=O)cc(OC)c1OC

> <InChI>
1/C17H19NO5/c1-21-13-10-12(11-14(22-2)17(13)23-3)7-8-16(20)18-9-5-4-6-15(18)19/h4,6-8,10-11H,5,9H2,1-3H3

$$$$
3069524
  Marvin  11101114202D          

 20 23  0  0  0  0            999 V2000
    5.0352    1.9716    0.0000 O   0  0  0  0  0  0  0  0  0  0  0  0
    4.7651    1.1921    0.0000 C   0  0  0  0  0  0  0  0  0  0  0  0
    5.3052    0.5684    0.0000 C   0  0  0  0  0  0  0  0  0  0  0  0
    5.0352   -0.2111    0.0000 C   0  0  0  0  0  0  0  0  0  0  0  0
    4.2251   -0.3671    0.0000 C   0  0  0  0  0  0  0  0  0  0  0  0
    3.9550   -1.1466    0.0000 O   0  0  0  0  0  0  0  0  0  0  0  0
    3.6850    0.2566    0.0000 C   0  0  0  0  0  0  0  0  0  0  0  0
    3.9550    1.0361    0.0000 C   0  0  0  0  0  0  0  0  0  0  0  0
    3.4149    1.6598    0.0000 C   0  0  0  0  0  0  0  0  0  0  0  0
    2.6048    1.5039    0.0000 C   0  0  0  0  0  0  0  0  0  0  0  0
    2.3347    0.7243    0.0000 C   0  0  0  0  0  0  0  0  0  0  0  0
    2.8748    0.1007    0.0000 C   0  0  0  0  0  0  0  0  0  0  0  0
    2.6048   -0.6789    0.0000 C   0  0  0  0  0  0  0  0  0  0  0  0
    1.7946   -0.8348    0.0000 C   0  0  0  0  0  0  0  0  0  0  0  0
    1.2546   -0.2111    0.0000 C   0  0  0  0  0  0  0  0  0  0  0  0
    0.4444   -0.3671    0.0000 C   0  0  0  0  0  0  0  0  0  0  0  0
   -0.0957    0.2566    0.0000 C   0  0  0  0  0  0  0  0  0  0  0  0
    0.1744    1.0361    0.0000 C   0  0  0  0  0  0  0  0  0  0  0  0
    0.9845    1.1921    0.0000 C   0  0  0  0  0  0  0  0  0  0  0  0
    1.5246    0.5684    0.0000 C   0  0  0  0  0  0  0  0  0  0  0  0
  1  2  2  0  0  0  0
  2  3  1  0  0  0  0
  3  4  2  0  0  0  0
  4  5  1  0  0  0  0
  5  6  2  0  0  0  0
  5  7  1  0  0  0  0
  7  8  4  0  0  0  0
  2  8  1  0  0  0  0
  8  9  4  0  0  0  0
  9 10  4  0  0  0  0
 10 11  4  0  0  0  0
 11 12  4  0  0  0  0
  7 12  4  0  0  0  0
 12 13  4  0  0  0  0
 13 14  4  0  0  0  0
 14 15  4  0  0  0  0
 15 16  4  0  0  0  0
 16 17  4  0  0  0  0
 17 18  4  0  0  0  0
 18 19  4  0  0  0  0
 19 20  4  0  0  0  0
 15 20  4  0  0  0  0
 11 20  4  0  0  0  0
M  END

> <ChembankId>
3069524

> <SMILES>
O=C1C=CC(=O)c2c1ccc3c2ccc4ccccc43

> <InChI>
1/C18H10O2/c19-16-9-10-17(20)18-14-6-5-11-3-1-2-4-12(11)13(14)7-8-15(16)18/h1-10H

$$$$
1048750
  Marvin  11101114202D          

 16 18  0  0  0  0            999 V2000
    0.6159   -2.2741    0.0000 C   0  0  0  0  0  0  0  0  0  0  0  0
    1.4229   -2.4457    0.0000 O   0  0  0  0  0  0  0  0  0  0  0  0
    1.9749   -1.8326    0.0000 C   0  0  0  0  0  0  0  0  0  0  0  0
    1.7200   -1.0479    0.0000 C   0  0  0  0  0  0  0  0  0  0  0  0
    2.2720   -0.4349    0.0000 C   0  0  0  0  0  0  0  0  0  0  0  0
    3.0790   -0.6064    0.0000 C   0  0  0  0  0  0  0  0  0  0  0  0
    3.7464   -0.1215    0.0000 N   0  0  0  0  0  0  0  0  0  0  0  0
    4.4139   -0.6064    0.0000 C   0  0  0  0  0  0  0  0  0  0  0  0
    5.2208   -0.4349    0.0000 C   0  0  0  0  0  0  0  0  0  0  0  0
    5.7729   -1.0479    0.0000 N   0  0  0  0  0  0  0  0  0  0  0  0
    5.5179   -1.8326    0.0000 C   0  0  0  0  0  0  0  0  0  0  0  0
    4.7110   -2.0041    0.0000 C   0  0  0  0  0  0  0  0  0  0  0  0
    4.1589   -1.3910    0.0000 C   0  0  0  0  0  0  0  0  0  0  0  0
    3.3339   -1.3910    0.0000 C   0  0  0  0  0  0  0  0  0  0  0  0
    2.7819   -2.0041    0.0000 C   0  0  0  0  0  0  0  0  0  0  0  0
    5.4758    0.3498    0.0000 C   0  0  0  0  0  0  0  0  0  0  0  0
  1  2  1  0  0  0  0
  2  3  1  0  0  0  0
  3  4  4  0  0  0  0
  4  5  4  0  0  0  0
  5  6  4  0  0  0  0
  6  7  4  0  0  0  0
  7  8  4  0  0  0  0
  8  9  1  0  0  0  0
  9 10  2  0  0  0  0
 10 11  1  0  0  0  0
 11 12  1  0  0  0  0
 12 13  1  0  0  0  0
  8 13  4  0  0  0  0
 13 14  4  0  0  0  0
  6 14  4  0  0  0  0
 14 15  4  0  0  0  0
  3 15  4  0  0  0  0
  9 16  1  0  0  0  0
M  STY  1   1 DAT
M  SAL   1  1   7
M  SDT   1 MRV_IMPLICIT_H                                        
M  SDD   1     0.0000    0.0000    DR    ALL  0       0  
M  SED   1 IMPL_H1
M  END

> <ChembankId>
1048750

> <SMILES>
COc1ccc2[nH]c3C(=NCCc3c2c1)C

> <InChI>
1/C13H14N2O/c1-8-13-10(5-6-14-8)11-7-9(16-2)3-4-12(11)15-13/h3-4,7,15H,5-6H2,1-2H3

$$$$
3069526
  Marvin  11101114202D          

 10 10  0  0  1  0            999 V2000
    1.1198    1.7274    0.0000 C   0  0  0  0  0  0  0  0  0  0  0  0
    0.5678    1.1143    0.0000 N   0  3  0  0  0  0  0  0  0  0  0  0
    0.0157    1.7274    0.0000 C   0  0  0  0  0  0  0  0  0  0  0  0
    1.2352    0.6294    0.0000 C   0  0  0  0  0  0  0  0  0  0  0  0
    0.9803   -0.1553    0.0000 C   0  0  0  0  0  0  0  0  0  0  0  0
    0.1553   -0.1553    0.0000 C   0  0  0  0  0  0  0  0  0  0  0  0
   -0.0997    0.6294    0.0000 C   0  0  1  0  0  0  0  0  0  0  0  0
   -0.8843    0.8843    0.0000 C   0  0  0  0  0  0  0  0  0  0  0  0
   -1.4974    0.3323    0.0000 O   0  0  0  0  0  0  0  0  0  0  0  0
   -1.0558    1.6913    0.0000 O   0  0  0  0  0  0  0  0  0  0  0  0
  1  2  1  0  0  0  0
  2  3  1  0  0  0  0
  2  4  1  0  0  0  0
  4  5  1  0  0  0  0
  5  6  1  0  0  0  0
  6  7  1  0  0  0  0
  2  7  1  0  0  0  0
  7  8  1  1  0  0  0
  8  9  2  0  0  0  0
  8 10  1  0  0  0  0
M  CHG  1   2   1
M  END

> <ChembankId>
3069526

> <SMILES>
C[N+]1(C)CCC[C@H]1C(=O)O

> <InChI>
1/C7H13NO2/c1-8(2)5-3-4-6(8)7(9)10/h6H,3-5H2,1-2H3/p+1

$$$$
3189580
  Marvin  11101114202D          

 13 14  0  0  1  0            999 V2000
    1.4289   -2.4750    0.0000 C   0  0  0  0  0  0  0  0  0  0  0  0
    1.4289   -1.6500    0.0000 C   0  0  2  0  0  0  0  0  0  0  0  0
    0.7145   -1.2375    0.0000 N   0  0  0  0  0  0  0  0  0  0  0  0
    0.7145   -0.4125    0.0000 C   0  0  0  0  0  0  0  0  0  0  0  0
    1.4289    0.0000    0.0000 C   0  0  0  0  0  0  0  0  0  0  0  0
    2.1434   -0.4125    0.0000 C   0  0  0  0  0  0  0  0  0  0  0  0
    2.8579    0.0000    0.0000 C   0  0  0  0  0  0  0  0  0  0  0  0
    3.5724   -0.4125    0.0000 C   0  0  0  0  0  0  0  0  0  0  0  0
    4.2868   -0.0000    0.0000 O   0  0  0  0  0  0  0  0  0  0  0  0
    3.5724   -1.2375    0.0000 C   0  0  0  0  0  0  0  0  0  0  0  0
    4.2868   -1.6500    0.0000 O   0  0  0  0  0  0  0  0  0  0  0  0
    2.8579   -1.6500    0.0000 C   0  0  0  0  0  0  0  0  0  0  0  0
    2.1434   -1.2375    0.0000 C   0  0  0  0  0  0  0  0  0  0  0  0
  2  1  1  6  0  0  0
  2  3  1  0  0  0  0
  3  4  1  0  0  0  0
  4  5  1  0  0  0  0
  5  6  1  0  0  0  0
  6  7  4  0  0  0  0
  7  8  4  0  0  0  0
  8  9  1  0  0  0  0
  8 10  4  0  0  0  0
 10 11  1  0  0  0  0
 10 12  4  0  0  0  0
 12 13  4  0  0  0  0
  2 13  1  0  0  0  0
  6 13  4  0  0  0  0
M  END

> <ChembankId>
3189580

> <SMILES>
C[C@@H]1NCCc2cc(O)c(O)cc12

> <InChI>
1/C10H13NO2/c1-6-8-5-10(13)9(12)4-7(8)2-3-11-6/h4-6,11-13H,2-3H2,1H3

$$$$
3189581
  Marvin  11101114202D          

 20 21  0  0  0  0            999 V2000
    0.0000   -4.1250    0.0000 C   0  0  0  0  0  0  0  0  0  0  0  0
    0.7145   -3.7125    0.0000 C   0  0  0  0  0  0  0  0  0  0  0  0
    0.7145   -2.8875    0.0000 C   0  0  0  0  0  0  0  0  0  0  0  0
    1.4289   -2.4750    0.0000 C   0  0  0  0  0  0  0  0  0  0  0  0
    1.4289   -1.6500    0.0000 C   0  0  0  0  0  0  0  0  0  0  0  0
    0.7145   -1.2375    0.0000 C   0  0  0  0  0  0  0  0  0  0  0  0
    0.7145   -0.4125    0.0000 C   0  0  0  0  0  0  0  0  0  0  0  0
    0.0000    0.0000    0.0000 C   0  0  0  0  0  0  0  0  0  0  0  0
    0.0000    0.8250    0.0000 C   0  0  0  0  0  0  0  0  0  0  0  0
    0.7145    1.2375    0.0000 C   0  0  0  0  0  0  0  0  0  0  0  0
    1.4289    0.8250    0.0000 C   0  0  0  0  0  0  0  0  0  0  0  0
    1.4289    0.0000    0.0000 C   0  0  0  0  0  0  0  0  0  0  0  0
    2.1434   -0.4125    0.0000 C   0  0  0  0  0  0  0  0  0  0  0  0
    2.8579    0.0000    0.0000 O   0  0  0  0  0  0  0  0  0  0  0  0
    3.5724   -0.4125    0.0000 C   0  0  0  0  0  0  0  0  0  0  0  0
    4.2868    0.0000    0.0000 C   0  0  0  0  0  0  0  0  0  0  0  0
    5.0013   -0.4125    0.0000 N   0  0  0  0  0  0  0  0  0  0  0  0
    5.7158    0.0000    0.0000 C   0  0  0  0  0  0  0  0  0  0  0  0
    5.0013   -1.2375    0.0000 C   0  0  0  0  0  0  0  0  0  0  0  0
    2.1434   -1.2375    0.0000 N   0  0  0  0  0  0  0  0  0  0  0  0
  1  2  1  0  0  0  0
  2  3  1  0  0  0  0
  3  4  1  0  0  0  0
  4  5  1  0  0  0  0
  5  6  4  0  0  0  0
  6  7  4  0  0  0  0
  7  8  4  0  0  0  0
  8  9  4  0  0  0  0
  9 10  4  0  0  0  0
 10 11  4  0  0  0  0
 11 12  4  0  0  0  0
  7 12  4  0  0  0  0
 12 13  4  0  0  0  0
 13 14  1  0  0  0  0
 14 15  1  0  0  0  0
 15 16  1  0  0  0  0
 16 17  1  0  0  0  0
 17 18  1  0  0  0  0
 17 19  1  0  0  0  0
 13 20  4  0  0  0  0
  5 20  4  0  0  0  0
M  END

> <ChembankId>
3189581

> <SMILES>
CCCCc1cc2ccccc2c(OCCN(C)C)n1

> <InChI>
1/C17H24N2O/c1-4-5-9-15-13-14-8-6-7-10-16(14)17(18-15)20-12-11-19(2)3/h6-8,10,13H,4-5,9,11-12H2,1-3H3

$$$$
3382
  Marvin  11101114202D          

 18 19  0  0  0  0            999 V2000
    2.0367   -0.4741    0.0000 C   0  0  0  0  0  0  0  0  0  0  0  0
    2.0367   -1.2991    0.0000 C   0  0  0  0  0  0  0  0  0  0  0  0
    1.3693   -1.7840    0.0000 C   0  0  0  0  0  0  0  0  0  0  0  0
    0.5846   -1.5291    0.0000 C   0  0  0  0  0  0  0  0  0  0  0  0
   -0.0284   -2.0811    0.0000 C   0  0  0  0  0  0  0  0  0  0  0  0
   -0.8131   -1.8262    0.0000 O   0  0  0  0  0  0  0  0  0  0  0  0
    1.6242   -2.5687    0.0000 S   0  0  0  0  0  0  0  0  0  0  0  0
    2.4492   -2.5687    0.0000 C   0  0  0  0  0  0  0  0  0  0  0  0
    2.7041   -1.7840    0.0000 N   0  3  0  0  0  0  0  0  0  0  0  0
    3.4888   -1.5291    0.0000 C   0  0  0  0  0  0  0  0  0  0  0  0
    4.1019   -2.0811    0.0000 C   0  0  0  0  0  0  0  0  0  0  0  0
    4.8865   -1.8262    0.0000 C   0  0  0  0  0  0  0  0  0  0  0  0
    5.4996   -2.3782    0.0000 N   0  0  0  0  0  0  0  0  0  0  0  0
    5.3281   -3.1852    0.0000 C   0  0  0  0  0  0  0  0  0  0  0  0
    5.9411   -3.7372    0.0000 C   0  0  0  0  0  0  0  0  0  0  0  0
    4.5434   -3.4401    0.0000 N   0  0  0  0  0  0  0  0  0  0  0  0
    3.9303   -2.8881    0.0000 C   0  0  0  0  0  0  0  0  0  0  0  0
    3.1457   -3.1430    0.0000 N   0  0  0  0  0  0  0  0  0  0  0  0
  1  2  1  0  0  0  0
  2  3  4  0  0  0  0
  3  4  1  0  0  0  0
  4  5  1  0  0  0  0
  5  6  1  0  0  0  0
  3  7  4  0  0  0  0
  7  8  4  0  0  0  0
  8  9  4  0  0  0  0
  2  9  4  0  0  0  0
  9 10  1  0  0  0  0
 10 11  1  0  0  0  0
 11 12  4  0  0  0  0
 12 13  4  0  0  0  0
 13 14  4  0  0  0  0
 14 15  1  0  0  0  0
 14 16  4  0  0  0  0
 16 17  4  0  0  0  0
 11 17  4  0  0  0  0
 17 18  1  0  0  0  0
M  CHG  1   9   1
M  END

> <ChembankId>
3382

> <SMILES>
Cc1c(CCO)sc[n+]1Cc2cnc(C)nc2N

> <InChI>
1/C12H17N4OS/c1-8-11(3-4-17)18-7-16(8)6-10-5-14-9(2)15-12(10)13/h5,7,17H,3-4,6H2,1-2H3,(H2,13,14,15)/q+1

$$$$
3069528
  Marvin  11101114202D          

 25 27  0  0  1  0            999 V2000
    5.3780    3.4264    0.0000 C   0  0  0  0  0  0  0  0  0  0  0  0
    5.9824    2.8648    0.0000 C   0  0  0  0  0  0  0  0  0  0  0  0
    5.7982    2.0606    0.0000 C   0  0  0  0  0  0  0  0  0  0  0  0
    6.4026    1.4990    0.0000 C   0  0  0  0  0  0  0  0  0  0  0  0
    6.2184    0.6948    0.0000 C   0  0  1  0  0  0  0  0  0  0  0  0
    5.4299    0.4522    0.0000 C   0  0  0  0  0  0  0  0  0  0  0  0
    6.8228    0.1333    0.0000 C   0  0  2  0  0  0  0  0  0  0  0  0
    7.2709    0.8260    0.0000 O   0  0  0  0  0  0  0  0  0  0  0  0
    7.5828   -0.1877    0.0000 C   0  0  0  0  0  0  0  0  0  0  0  0
    7.6848   -1.0064    0.0000 O   0  0  0  0  0  0  0  0  0  0  0  0
    6.6386   -0.6709    0.0000 C   0  0  0  0  0  0  0  0  0  0  0  0
    7.2430   -1.2325    0.0000 O   0  0  0  0  0  0  0  0  0  0  0  0
    5.8501   -0.9135    0.0000 O   0  0  0  0  0  0  0  0  0  0  0  0
    5.2458   -0.3520    0.0000 C   0  0  0  0  0  0  0  0  0  0  0  0
    4.4572   -0.5946    0.0000 C   0  0  0  0  0  0  0  0  0  0  0  0
    3.9619   -1.2543    0.0000 C   0  0  0  0  0  0  0  0  0  0  0  0
    3.1814   -0.9871    0.0000 C   0  0  0  0  0  0  0  0  0  0  0  0
    3.1943   -0.1622    0.0000 N   0  0  0  0  0  0  0  0  0  0  0  0
    2.7199    0.5127    0.0000 C   0  0  0  0  0  0  0  0  0  0  0  0
    3.2152    1.1725    0.0000 C   0  0  0  0  0  0  0  0  0  0  0  0
    4.0370    0.7712    0.0000 C   0  0  1  0  0  0  0  0  0  0  0  0
    4.8255    1.0138    0.0000 O   0  0  0  0  0  0  0  0  0  0  0  0
    5.0097    1.8180    0.0000 C   0  0  0  0  0  0  0  0  0  0  0  0
    4.4053    2.3796    0.0000 O   0  0  0  0  0  0  0  0  0  0  0  0
    3.8529   -0.0330    0.0000 C   0  0  1  0  0  0  0  0  0  0  0  0
  1  2  1  0  0  0  0
  2  3  2  0  0  0  0
  3  4  1  0  0  0  0
  4  5  1  0  0  0  0
  5  6  1  6  0  0  0
  5  7  1  0  0  0  0
  7  8  1  1  0  0  0
  7  9  1  6  0  0  0
  9 10  1  0  0  0  0
  7 11  1  0  0  0  0
 11 12  2  0  0  0  0
 11 13  1  0  0  0  0
 13 14  1  0  0  0  0
 14 15  1  0  0  0  0
 15 16  2  0  0  0  0
 16 17  1  0  0  0  0
 17 18  1  0  0  0  0
 18 19  1  0  0  0  0
 19 20  1  0  0  0  0
 21 20  1  1  0  0  0
 21 22  1  0  0  0  0
 22 23  1  0  0  0  0
  3 23  1  0  0  0  0
 23 24  2  0  0  0  0
 21 25  1  0  0  0  0
 25 18  1  1  0  0  0
 15 25  1  0  0  0  0
M  END

> <ChembankId>
3069528

> <SMILES>
C/C=C\1/C[C@@H](C)[C@](O)(CO)C(=O)OCC2=CCN3CC[C@@H](OC1=O)[C@H]32

> <InChI>
1/C18H25NO6/c1-3-12-8-11(2)18(23,10-20)17(22)24-9-13-4-6-19-7-5-14(15(13)19)25-16(12)21/h3-4,11,14-15,20,23H,5-10H2,1-2H3

$$$$
3069529
  Marvin  11101114202D          

 61 69  0  0  1  0            999 V2000
    1.9102    2.3504    0.0000 C   0  0  0  0  0  0  0  0  0  0  0  0
    1.9204    1.5254    0.0000 C   0  0  1  0  0  0  0  0  0  0  0  0
    2.5937    1.0487    0.0000 C   0  0  0  0  0  0  0  0  0  0  0  0
    2.3484    0.2610    0.0000 C   0  0  2  0  0  0  0  0  0  0  0  0
    3.0218   -0.2156    0.0000 C   0  0  0  0  0  0  0  0  0  0  0  0
    3.6832    0.2775    0.0000 C   0  0  1  0  0  0  0  0  0  0  0  0
    4.4922    0.1159    0.0000 C   0  0  2  0  0  0  0  0  0  0  0  0
    4.7568   -0.6656    0.0000 C   0  0  0  0  0  0  0  0  0  0  0  0
    5.5658   -0.8272    0.0000 C   0  0  0  0  0  0  0  0  0  0  0  0
    6.1103   -0.2073    0.0000 C   0  0  0  0  0  0  0  0  0  0  0  0
    6.9193   -0.3689    0.0000 C   0  0  0  0  0  0  0  0  0  0  0  0
    7.4637    0.2509    0.0000 C   0  0  2  0  0  0  0  0  0  0  0  0
    7.1992    1.0323    0.0000 C   0  0  0  0  0  0  0  0  0  0  0  0
    6.3902    1.1939    0.0000 C   0  0  0  0  0  0  0  0  0  0  0  0
    5.8457    0.5741    0.0000 C   0  0  1  0  0  0  0  0  0  0  0  0
    5.5811    1.3555    0.0000 C   0  0  0  0  0  0  0  0  0  0  0  0
    5.0367    0.7357    0.0000 C   0  0  1  0  0  0  0  0  0  0  0  0
    4.7721    1.5171    0.0000 C   0  0  0  0  0  0  0  0  0  0  0  0
    3.9631    1.6787    0.0000 C   0  0  0  0  0  0  0  0  0  0  0  0
    3.4186    1.0589    0.0000 C   0  0  2  0  0  0  0  0  0  0  0  0
    3.0738    1.8084    0.0000 C   0  0  0  0  0  0  0  0  0  0  0  0
    8.2728    0.0893    0.0000 O   0  0  0  0  0  0  0  0  0  0  0  0
    8.8172    0.7091    0.0000 C   0  0  1  0  0  0  0  0  0  0  0  0
    9.1168    1.4778    0.0000 C   0  0  0  0  0  0  0  0  0  0  0  0
    9.9323    1.6027    0.0000 C   0  0  1  0  0  0  0  0  0  0  0  0
   10.2320    2.3713    0.0000 O   0  0  0  0  0  0  0  0  0  0  0  0
   11.0475    2.4962    0.0000 C   0  0  2  0  0  0  0  0  0  0  0  0
   11.5633    1.8524    0.0000 O   0  0  0  0  0  0  0  0  0  0  0  0
   12.3788    1.9772    0.0000 C   0  0  0  0  0  0  0  0  0  0  0  0
   12.8947    1.3334    0.0000 C   0  0  0  0  0  0  0  0  0  0  0  0
   13.7102    1.4582    0.0000 O   0  0  0  0  0  0  0  0  0  0  0  0
   12.6785    2.7459    0.0000 C   0  0  1  0  0  0  0  0  0  0  0  0
   13.4940    2.8707    0.0000 O   0  0  0  0  0  0  0  0  0  0  0  0
   12.1626    3.3897    0.0000 C   0  0  1  0  0  0  0  0  0  0  0  0
   12.4622    4.1584    0.0000 O   0  0  0  0  0  0  0  0  0  0  0  0
   11.3471    3.2648    0.0000 C   0  0  0  0  0  0  0  0  0  0  0  0
   10.8312    3.9087    0.0000 O   0  0  0  0  0  0  0  0  0  0  0  0
   10.4482    0.9588    0.0000 C   0  0  1  0  0  0  0  0  0  0  0  0
   11.2637    1.0837    0.0000 O   0  0  0  0  0  0  0  0  0  0  0  0
   10.1486    0.1902    0.0000 C   0  0  0  0  0  0  0  0  0  0  0  0
   10.6645   -0.4536    0.0000 C   0  0  0  0  0  0  0  0  0  0  0  0
   10.3648   -1.2223    0.0000 O   0  0  0  0  0  0  0  0  0  0  0  0
    9.3331    0.0653    0.0000 O   0  0  0  0  0  0  0  0  0  0  0  0
    8.1123    1.1377    0.0000 O   0  0  0  0  0  0  0  0  0  0  0  0
    8.1309    1.9625    0.0000 C   0  0  1  0  0  0  0  0  0  0  0  0
    7.4259    2.3910    0.0000 O   0  0  0  0  0  0  0  0  0  0  0  0
    7.4446    3.2158    0.0000 C   0  0  0  0  0  0  0  0  0  0  0  0
    6.7396    3.6444    0.0000 C   0  0  0  0  0  0  0  0  0  0  0  0
    8.1682    3.6121    0.0000 C   0  0  2  0  0  0  0  0  0  0  0  0
    8.1869    4.4368    0.0000 O   0  0  0  0  0  0  0  0  0  0  0  0
    8.8732    3.1835    0.0000 C   0  0  2  0  0  0  0  0  0  0  0  0
    9.5968    3.5797    0.0000 O   0  0  0  0  0  0  0  0  0  0  0  0
    8.8545    2.3587    0.0000 C   0  0  0  0  0  0  0  0  0  0  0  0
    9.5595    1.9302    0.0000 O   0  0  0  0  0  0  0  0  0  0  0  0
    1.5235    0.2509    0.0000 N   0  0  0  0  0  0  0  0  0  0  0  0
    0.9790   -0.3689    0.0000 C   0  0  0  0  0  0  0  0  0  0  0  0
    0.1700   -0.2073    0.0000 C   0  0  1  0  0  0  0  0  0  0  0  0
   -0.3744   -0.8272    0.0000 C   0  0  0  0  0  0  0  0  0  0  0  0
   -0.0945    0.5741    0.0000 C   0  0  0  0  0  0  0  0  0  0  0  0
    0.4499    1.1939    0.0000 C   0  0  0  0  0  0  0  0  0  0  0  0
    1.2589    1.0323    0.0000 C   0  0  2  0  0  0  0  0  0  0  0  0
  2  1  1  1  0  0  0
  2  3  1  0  0  0  0
  3  4  1  0  0  0  0
  4  5  1  6  0  0  0
  6  5  1  6  0  0  0
  6  7  1  0  0  0  0
  7  8  1  1  0  0  0
  8  9  1  0  0  0  0
  9 10  2  0  0  0  0
 10 11  1  0  0  0  0
 11 12  1  0  0  0  0
 12 13  1  0  0  0  0
 13 14  1  0  0  0  0
 14 15  1  0  0  0  0
 10 15  1  0  0  0  0
 15 16  1  6  0  0  0
 15 17  1  0  0  0  0
  7 17  1  0  0  0  0
 17 18  1  6  0  0  0
 18 19  1  0  0  0  0
 19 20  1  0  0  0  0
  3 20  1  0  0  0  0
  6 20  1  0  0  0  0
 20 21  1  6  0  0  0
 12 22  1  6  0  0  0
 23 22  1  1  0  0  0
 23 24  1  0  0  0  0
 24 25  1  0  0  0  0
 25 26  1  1  0  0  0
 27 26  1  1  0  0  0
 27 28  1  0  0  0  0
 28 29  1  0  0  0  0
 29 30  1  0  0  0  0
 30 31  1  0  0  0  0
 29 32  1  0  0  0  0
 32 33  1  6  0  0  0
 32 34  1  0  0  0  0
 34 35  1  6  0  0  0
 34 36  1  0  0  0  0
 27 36  1  0  0  0  0
 36 37  1  0  0  0  0
 25 38  1  0  0  0  0
 38 39  1  1  0  0  0
 38 40  1  0  0  0  0
 40 41  1  0  0  0  0
 41 42  1  0  0  0  0
 40 43  1  0  0  0  0
 23 43  1  0  0  0  0
 23 44  1  6  0  0  0
 45 44  1  1  0  0  0
 45 46  1  0  0  0  0
 46 47  1  0  0  0  0
 47 48  1  0  0  0  0
 47 49  1  0  0  0  0
 49 50  1  6  0  0  0
 49 51  1  0  0  0  0
 51 52  1  6  0  0  0
 51 53  1  0  0  0  0
 45 53  1  0  0  0  0
 53 54  1  0  0  0  0
  4 55  1  0  0  0  0
 55 56  1  0  0  0  0
 56 57  1  0  0  0  0
 57 58  1  1  0  0  0
 57 59  1  0  0  0  0
 59 60  1  0  0  0  0
 60 61  1  0  0  0  0
  2 61  1  0  0  0  0
 61 55  1  6  0  0  0
M  END

> <ChembankId>
3069529

> <SMILES>
C[C@H]1[C@H]2[C@H](C[C@H]3[C@@H]4CC=C5C[C@H](CC[C@]5(C)[C@H]4CC[C@]23C)O[C@]6(C[C@@H](O[C@@H]7OC(CO)[C@@H](O)[C@@H](O)C7O)[C@@H](O)C(CO)O6)O[C@H]8OC(C)[C@H](O)[C@H](O)C8O)N9C[C@@H](C)CC[C@H]19

> <InChI>
1/C45H73NO15/c1-20-6-9-28-21(2)33-29(46(28)17-20)15-27-25-8-7-23-14-24(10-12-43(23,4)26(25)11-13-44(27,33)5)59-45(61-42-40(55)37(52)34(49)22(3)56-42)16-30(35(50)32(19-48)60-45)57-41-39(54)38(53)36(51)31(18-47)58-41/h7,20-22,24-42,47-55H,6,8-19H2,1-5H3/t20-,21-,22+,24+,25-,26-,27+,28+,29-,30+,31-,32-,33+,34-,35+,36-,37+,38-,39+,40-,41-,42+,43+,44+,45+/m1/s1

$$$$
3069532
  Marvin  11101114202D          

 11 11  0  0  1  0            999 V2000
    1.1198    1.7274    0.0000 C   0  0  0  0  0  0  0  0  0  0  0  0
    0.5678    1.1143    0.0000 N   0  3  0  0  0  0  0  0  0  0  0  0
    0.0157    1.7274    0.0000 C   0  0  0  0  0  0  0  0  0  0  0  0
    1.2352    0.6294    0.0000 C   0  0  0  0  0  0  0  0  0  0  0  0
    0.9803   -0.1553    0.0000 C   0  0  1  0  0  0  0  0  0  0  0  0
    1.4652   -0.8227    0.0000 O   0  0  0  0  0  0  0  0  0  0  0  0
    0.1553   -0.1553    0.0000 C   0  0  0  0  0  0  0  0  0  0  0  0
   -0.0997    0.6294    0.0000 C   0  0  1  0  0  0  0  0  0  0  0  0
   -0.8843    0.8843    0.0000 C   0  0  0  0  0  0  0  0  0  0  0  0
   -1.4974    0.3323    0.0000 O   0  0  0  0  0  0  0  0  0  0  0  0
   -1.0558    1.6913    0.0000 O   0  0  0  0  0  0  0  0  0  0  0  0
  1  2  1  0  0  0  0
  2  3  1  0  0  0  0
  2  4  1  0  0  0  0
  4  5  1  0  0  0  0
  5  6  1  1  0  0  0
  5  7  1  0  0  0  0
  7  8  1  0  0  0  0
  2  8  1  0  0  0  0
  8  9  1  1  0  0  0
  9 10  2  0  0  0  0
  9 11  1  0  0  0  0
M  CHG  1   2   1
M  END

> <ChembankId>
3069532

> <SMILES>
C[N+]1(C)C[C@@H](O)C[C@H]1C(=O)O

> <InChI>
1/C7H13NO3/c1-8(2)4-5(9)3-6(8)7(10)11/h5-6,9H,3-4H2,1-2H3/p+1

$$$$
3069536
  Marvin  11101114202D          

 31 34  0  0  1  0            999 V2000
    0.0000   -4.9500    0.0000 O   0  0  0  0  0  0  0  0  0  0  0  0
    0.0000   -4.1250    0.0000 C   0  0  0  0  0  0  0  0  0  0  0  0
    0.7145   -3.7125    0.0000 C   0  0  1  0  0  0  0  0  0  0  0  0
    0.7145   -2.8875    0.0000 O   0  0  0  0  0  0  0  0  0  0  0  0
    1.4289   -2.4750    0.0000 C   0  0  0  0  0  0  0  0  0  0  0  0
    2.1434   -2.8875    0.0000 C   0  0  2  0  0  0  0  0  0  0  0  0
    2.8579   -2.4750    0.0000 O   0  0  0  0  0  0  0  0  0  0  0  0
    2.1434   -3.7125    0.0000 C   0  0  1  0  0  0  0  0  0  0  0  0
    2.8579   -4.1250    0.0000 O   0  0  0  0  0  0  0  0  0  0  0  0
    1.4289   -4.1250    0.0000 C   0  0  2  0  0  0  0  0  0  0  0  0
    1.4289   -4.9500    0.0000 O   0  0  0  0  0  0  0  0  0  0  0  0
    1.4289   -1.6500    0.0000 C   0  0  0  0  0  0  0  0  0  0  0  0
    0.7145   -1.2375    0.0000 C   0  0  0  0  0  0  0  0  0  0  0  0
    0.0000   -1.6500    0.0000 O   0  0  0  0  0  0  0  0  0  0  0  0
    0.7145   -0.4125    0.0000 C   0  0  0  0  0  0  0  0  0  0  0  0
    1.4289    0.0000    0.0000 C   0  0  0  0  0  0  0  0  0  0  0  0
    1.4289    0.8250    0.0000 O   0  0  0  0  0  0  0  0  0  0  0  0
    2.1434   -0.4125    0.0000 C   0  0  0  0  0  0  0  0  0  0  0  0
    2.8579    0.0000    0.0000 C   0  0  0  0  0  0  0  0  0  0  0  0
    2.8579    0.8250    0.0000 O   0  0  0  0  0  0  0  0  0  0  0  0
    3.5724   -0.4125    0.0000 C   0  0  0  0  0  0  0  0  0  0  0  0
    3.5724   -1.2375    0.0000 C   0  0  0  0  0  0  0  0  0  0  0  0
    2.8579   -1.6500    0.0000 O   0  0  0  0  0  0  0  0  0  0  0  0
    2.1434   -1.2375    0.0000 C   0  0  0  0  0  0  0  0  0  0  0  0
    4.2868   -1.6500    0.0000 C   0  0  0  0  0  0  0  0  0  0  0  0
    5.0013   -1.2375    0.0000 C   0  0  0  0  0  0  0  0  0  0  0  0
    5.7158   -1.6500    0.0000 C   0  0  0  0  0  0  0  0  0  0  0  0
    5.7158   -2.4750    0.0000 C   0  0  0  0  0  0  0  0  0  0  0  0
    6.4302   -2.8875    0.0000 O   0  0  0  0  0  0  0  0  0  0  0  0
    5.0013   -2.8875    0.0000 C   0  0  0  0  0  0  0  0  0  0  0  0
    4.2868   -2.4750    0.0000 C   0  0  0  0  0  0  0  0  0  0  0  0
  1  2  1  0  0  0  0
  3  2  1  1  0  0  0
  3  4  1  0  0  0  0
  4  5  1  0  0  0  0
  5  6  1  0  0  0  0
  6  7  1  6  0  0  0
  6  8  1  0  0  0  0
  8  9  1  1  0  0  0
  8 10  1  0  0  0  0
  3 10  1  0  0  0  0
 10 11  1  6  0  0  0
  5 12  1  0  0  0  0
 12 13  4  0  0  0  0
 13 14  1  0  0  0  0
 13 15  4  0  0  0  0
 15 16  4  0  0  0  0
 16 17  1  0  0  0  0
 16 18  4  0  0  0  0
 18 19  4  0  0  0  0
 19 20  2  0  0  0  0
 19 21  4  0  0  0  0
 21 22  4  0  0  0  0
 22 23  4  0  0  0  0
 23 24  4  0  0  0  0
 12 24  4  0  0  0  0
 18 24  4  0  0  0  0
 22 25  1  0  0  0  0
 25 26  4  0  0  0  0
 26 27  4  0  0  0  0
 27 28  4  0  0  0  0
 28 29  1  0  0  0  0
 28 30  4  0  0  0  0
 30 31  4  0  0  0  0
 25 31  4  0  0  0  0
M  END

> <ChembankId>
3069536

> <SMILES>
OC[C@H]1OC([C@H](O)[C@@H](O)[C@@H]1O)c2c(O)cc(O)c3c(=O)cc(oc23)c4ccc(O)cc4

> <InChI>
1/C21H20O10/c22-7-14-17(27)18(28)19(29)21(31-14)16-11(25)5-10(24)15-12(26)6-13(30-20(15)16)8-1-3-9(23)4-2-8/h1-6,14,17-19,21-25,27-29H,7H2

$$$$
3069538
  Marvin  11101114202D          

 34 40  0  0  1  0            999 V2000
   -0.2305   -2.3387    0.0000 C   0  0  0  0  0  0  0  0  0  0  0  0
    0.5923   -2.2792    0.0000 C   0  0  0  0  0  0  0  0  0  0  0  0
    0.9522   -1.5368    0.0000 N   0  0  0  0  0  0  0  0  0  0  0  0
    0.4943   -0.8003    0.0000 C   0  0  0  0  0  0  0  0  0  0  0  0
    0.8422   -0.0105    0.0000 C   0  0  2  0  0  0  0  0  0  0  0  0
    0.0691    0.2776    0.0000 C   0  0  0  0  0  0  0  0  0  0  0  0
   -0.0679    1.0912    0.0000 O   0  0  0  0  0  0  0  0  0  0  0  0
    0.5681    1.6166    0.0000 C   0  0  0  0  0  0  0  0  0  0  0  0
    1.0976    0.8193    0.0000 C   0  0  0  0  0  0  0  0  0  0  0  0
    1.9079    1.0468    0.0000 C   0  0  0  0  0  0  0  0  0  0  0  0
    2.4238    0.3975    0.0000 C   0  0  2  0  0  0  0  0  0  0  0  0
    3.2299    0.5731    0.0000 O   0  0  0  0  0  0  0  0  0  0  0  0
    3.4808    1.3590    0.0000 C   0  0  0  0  0  0  0  0  0  0  0  0
    2.2117   -0.4607    0.0000 C   0  0  1  0  0  0  0  0  0  0  0  0
    3.0238   -0.0577    0.0000 C   0  0  0  0  0  0  0  0  0  0  0  0
    3.7568    0.5143    0.0000 C   0  0  0  0  0  0  0  0  0  0  0  0
    4.5999   -0.1581    0.0000 C   0  0  1  0  0  0  0  0  0  0  0  0
    4.1443    0.1487    0.0000 C   0  0  2  0  0  0  0  0  0  0  0  0
    4.2551   -0.6688    0.0000 O   0  0  0  0  0  0  0  0  0  0  0  0
    3.6024   -1.1735    0.0000 C   0  0  0  0  0  0  0  0  0  0  0  0
    3.5034   -0.5988    0.0000 C   0  0  0  0  0  0  0  0  0  0  0  0
    3.4180   -1.4530    0.0000 C   0  0  0  0  0  0  0  0  0  0  0  0
    4.2770   -1.5618    0.0000 C   0  0  0  0  0  0  0  0  0  0  0  0
    4.8979   -0.9844    0.0000 C   0  0  2  0  0  0  0  0  0  0  0  0
    5.6997   -1.1788    0.0000 O   0  0  0  0  0  0  0  0  0  0  0  0
    6.2689   -0.5815    0.0000 C   0  0  0  0  0  0  0  0  0  0  0  0
    3.7656   -2.2386    0.0000 O   0  0  0  0  0  0  0  0  0  0  0  0
    3.2500   -2.8709    0.0000 C   0  0  0  0  0  0  0  0  0  0  0  0
    2.4956   -2.5329    0.0000 O   0  0  0  0  0  0  0  0  0  0  0  0
    2.4785   -1.6660    0.0000 C   0  0  2  0  0  0  0  0  0  0  0  0
    1.4674   -1.2617    0.0000 C   0  0  1  0  0  0  0  0  0  0  0  0
    0.8382   -0.7281    0.0000 O   0  0  0  0  0  0  0  0  0  0  0  0
    1.5424   -0.3687    0.0000 C   0  0  0  0  0  0  0  0  0  0  0  0
    1.8991   -1.4305    0.0000 C   0  0  2  0  0  0  0  0  0  0  0  0
  1  2  1  0  0  0  0
  2  3  1  0  0  0  0
  3  4  1  0  0  0  0
  4  5  1  0  0  0  0
  5  6  1  1  0  0  0
  6  7  1  0  0  0  0
  7  8  1  0  0  0  0
  5  9  1  0  0  0  0
  9 10  1  0  0  0  0
 10 11  1  0  0  0  0
 11 12  1  6  0  0  0
 12 13  1  0  0  0  0
 11 14  1  0  0  0  0
 14 15  1  0  0  0  0
 15 16  1  0  0  0  0
 17 16  1  6  0  0  0
 17 18  1  0  0  0  0
 18 19  1  1  0  0  0
 19 20  1  0  0  0  0
 18 21  1  0  0  0  0
 15 21  1  0  0  0  0
 21 22  1  0  0  0  0
 22 23  1  0  0  0  0
 23 24  1  0  0  0  0
 17 24  1  0  0  0  0
 24 25  1  1  0  0  0
 25 26  1  0  0  0  0
 22 27  1  0  0  0  0
 27 28  1  0  0  0  0
 28 29  1  0  0  0  0
 30 29  1  6  0  0  0
 22 30  1  0  0  0  0
 30 31  1  0  0  0  0
 31 32  1  1  0  0  0
 31 33  1  0  0  0  0
 14 33  1  1  0  0  0
  5 33  1  0  0  0  0
 14 34  1  0  0  0  0
 34  3  1  6  0  0  0
 30 34  1  0  0  0  0
M  END

> <ChembankId>
3069538

> <SMILES>
CCN1C[C@]2(COC)CC[C@H](OC)[C@]3(C4C[C@H]5[C@H](OC)C4C6(C[C@@H]5OC)OCO[C@@]76[C@@H](O)C32)[C@@H]17

> <InChI>
1/C26H41NO7/c1-6-27-11-23(12-29-2)8-7-17(31-4)25-15-9-14-16(30-3)10-24(18(15)19(14)32-5)26(22(25)27,34-13-33-24)21(28)20(23)25/h14-22,28H,6-13H2,1-5H3/t14-,15-,16+,17-,18-,19-,20-,21+,22+,23+,24-,25+,26?/m1/s1

$$$$
3187620
  Marvin  11101114202D          

  8  8  0  0  1  0            999 V2000
    2.1434   -0.4125    0.0000 C   0  0  0  0  0  0  0  0  0  0  0  0
    1.4289   -0.0000    0.0000 C   0  0  1  0  0  0  0  0  0  0  0  0
    0.7145   -0.4125    0.0000 C   0  0  0  0  0  0  0  0  0  0  0  0
    0.0000   -0.0000    0.0000 C   0  0  0  0  0  0  0  0  0  0  0  0
    0.0000    0.8250    0.0000 C   0  0  0  0  0  0  0  0  0  0  0  0
    0.7145    1.2375    0.0000 C   0  0  1  0  0  0  0  0  0  0  0  0
    0.7145    2.0625    0.0000 C   0  0  0  0  0  0  0  0  0  0  0  0
    1.4289    0.8250    0.0000 N   0  0  0  0  0  0  0  0  0  0  0  0
  2  1  1  1  0  0  0
  2  3  1  0  0  0  0
  3  4  1  0  0  0  0
  4  5  1  0  0  0  0
  5  6  1  0  0  0  0
  6  7  1  1  0  0  0
  6  8  1  0  0  0  0
  2  8  1  0  0  0  0
M  END

> <ChembankId>
3187620

> <SMILES>
C[C@H]1CCC[C@@H](C)N1

> <InChI>
1/C7H15N/c1-6-4-3-5-7(2)8-6/h6-8H,3-5H2,1-2H3

$$$$
3187622
  Marvin  11101114202D          

 36 42  0  0  1  0            999 V2000
    0.0998   -2.9515    0.0000 C   0  0  0  0  0  0  0  0  0  0  0  0
    0.6912   -2.3428    0.0000 C   0  0  0  0  0  0  0  0  0  0  0  0
    1.0345   -1.5027    0.0000 N   0  0  0  0  0  0  0  0  0  0  0  0
    0.4616   -0.7920    0.0000 C   0  0  0  0  0  0  0  0  0  0  0  0
    0.8083   -0.0016    0.0000 C   0  0  2  0  0  0  0  0  0  0  0  0
    0.0500    0.3978    0.0000 C   0  0  0  0  0  0  0  0  0  0  0  0
    1.0625    0.8286    0.0000 C   0  0  0  0  0  0  0  0  0  0  0  0
    1.8724    1.0572    0.0000 C   0  0  0  0  0  0  0  0  0  0  0  0
    2.3894    0.4087    0.0000 C   0  0  2  0  0  0  0  0  0  0  0  0
    2.6651    1.3366    0.0000 O   0  0  0  0  0  0  0  0  0  0  0  0
    3.2893    1.9090    0.0000 C   0  0  0  0  0  0  0  0  0  0  0  0
    2.1785   -0.4499    0.0000 C   0  0  2  0  0  0  0  0  0  0  0  0
    1.5091   -0.3588    0.0000 C   0  0  0  0  0  0  0  0  0  0  0  0
    1.4354   -1.2519    0.0000 C   0  0  2  0  0  0  0  0  0  0  0  0
    0.4572   -1.4689    0.0000 O   0  0  0  0  0  0  0  0  0  0  0  0
   -0.3889   -1.4974    0.0000 C   0  0  0  0  0  0  0  0  0  0  0  0
   -0.7770   -2.2254    0.0000 O   0  0  0  0  0  0  0  0  0  0  0  0
   -0.8252   -0.7972    0.0000 C   0  0  0  0  0  0  0  0  0  0  0  0
    2.4471   -1.6547    0.0000 C   0  0  0  0  0  0  0  0  0  0  0  0
    2.4655   -2.5216    0.0000 O   0  0  0  0  0  0  0  0  0  0  0  0
    3.2204   -2.8584    0.0000 C   0  0  0  0  0  0  0  0  0  0  0  0
    3.7350   -2.2254    0.0000 O   0  0  0  0  0  0  0  0  0  0  0  0
    3.3863   -1.4403    0.0000 C   0  0  1  0  0  0  0  0  0  0  0  0
    4.2454   -1.5479    0.0000 C   0  0  0  0  0  0  0  0  0  0  0  0
    4.8655   -0.9696    0.0000 C   0  0  2  0  0  0  0  0  0  0  0  0
    5.7363   -1.0523    0.0000 O   0  0  0  0  0  0  0  0  0  0  0  0
    6.4698   -0.6516    0.0000 C   0  0  0  0  0  0  0  0  0  0  0  0
    4.5662   -0.1437    0.0000 C   0  0  0  0  0  0  0  0  0  0  0  0
    3.7221    0.5275    0.0000 C   0  0  0  0  0  0  0  0  0  0  0  0
    2.9900   -0.0456    0.0000 C   0  0  1  0  0  0  0  0  0  0  0  0
    3.1268    0.7929    0.0000 O   0  0  0  0  0  0  0  0  0  0  0  0
    3.4704   -0.5860    0.0000 C   0  0  0  0  0  0  0  0  0  0  0  0
    4.1102    0.1625    0.0000 C   0  0  1  0  0  0  0  0  0  0  0  0
    4.7599   -0.6001    0.0000 O   0  0  0  0  0  0  0  0  0  0  0  0
    4.0085   -0.9117    0.0000 C   0  0  0  0  0  0  0  0  0  0  0  0
    1.8674   -1.4201    0.0000 C   0  0  1  0  0  0  0  0  0  0  0  0
  1  2  1  0  0  0  0
  2  3  1  0  0  0  0
  3  4  1  0  0  0  0
  4  5  1  0  0  0  0
  5  6  1  1  0  0  0
  5  7  1  0  0  0  0
  7  8  1  0  0  0  0
  8  9  1  0  0  0  0
  9 10  1  6  0  0  0
 10 11  1  0  0  0  0
  9 12  1  0  0  0  0
 12 13  1  1  0  0  0
  5 13  1  0  0  0  0
 13 14  1  0  0  0  0
 14 15  1  1  0  0  0
 15 16  1  0  0  0  0
 16 17  2  0  0  0  0
 16 18  1  0  0  0  0
 14 19  1  0  0  0  0
 19 20  1  0  0  0  0
 20 21  1  0  0  0  0
 21 22  1  0  0  0  0
 22 23  1  0  0  0  0
 19 23  1  0  0  0  0
 23 24  1  6  0  0  0
 24 25  1  0  0  0  0
 25 26  1  1  0  0  0
 26 27  1  0  0  0  0
 25 28  1  0  0  0  0
 28 29  1  0  0  0  0
 29 30  1  0  0  0  0
 12 30  1  0  0  0  0
 30 31  1  1  0  0  0
 30 32  1  0  0  0  0
 23 32  1  0  0  0  0
 32 33  1  0  0  0  0
 28 33  1  0  0  0  0
 33 34  1  1  0  0  0
 34 35  1  0  0  0  0
 19 36  1  0  0  0  0
 36  3  1  1  0  0  0
 12 36  1  0  0  0  0
M  END

> <ChembankId>
3187622

> <SMILES>
CCN1C[C@]2(C)CC[C@H](OC)[C@@]34C2[C@H](OC(=O)C)C5(OCO[C@]65C[C@H](OC)C7C[C@]4(O)C6[C@H]7OC)[C@@H]13

> <InChI>
1/C27H41NO8/c1-7-28-12-23(3)9-8-17(32-5)26-20(23)21(36-14(2)29)27(22(26)28)25(34-13-35-27)11-16(31-4)15-10-24(26,30)19(25)18(15)33-6/h15-22,30H,7-13H2,1-6H3/t15-,16-,17-,18-,19+,20-,21+,22+,23+,24+,25-,26-,27-/m1/s1

$$$$
1182082
  Marvin  11101114202D          

 21 24  0  0  0  0            999 V2000
    7.6391   -3.5854    0.0000 C   0  0  0  0  0  0  0  0  0  0  0  0
    7.6391   -2.7604    0.0000 N   0  0  0  0  0  0  0  0  0  0  0  0
    6.9246   -2.3479    0.0000 C   0  0  0  0  0  0  0  0  0  0  0  0
    6.9246   -1.5229    0.0000 C   0  0  0  0  0  0  0  0  0  0  0  0
    7.6391   -1.1104    0.0000 C   0  0  0  0  0  0  0  0  0  0  0  0
    7.6391   -0.2854    0.0000 O   0  0  0  0  0  0  0  0  0  0  0  0
    8.3536   -1.5229    0.0000 C   0  0  0  0  0  0  0  0  0  0  0  0
    9.0681   -1.1104    0.0000 C   0  0  0  0  0  0  0  0  0  0  0  0
    9.7825   -1.5229    0.0000 C   0  0  0  0  0  0  0  0  0  0  0  0
    9.7825   -2.3479    0.0000 C   0  0  0  0  0  0  0  0  0  0  0  0
    9.0681   -2.7604    0.0000 C   0  0  0  0  0  0  0  0  0  0  0  0
    8.3536   -2.3479    0.0000 C   0  0  0  0  0  0  0  0  0  0  0  0
    6.2102   -2.7604    0.0000 C   0  0  0  0  0  0  0  0  0  0  0  0
    6.2102   -3.5854    0.0000 C   0  0  0  0  0  0  0  0  0  0  0  0
    5.4957   -3.9979    0.0000 C   0  0  0  0  0  0  0  0  0  0  0  0
    4.7812   -3.5854    0.0000 C   0  0  0  0  0  0  0  0  0  0  0  0
    3.9966   -3.8404    0.0000 O   0  0  0  0  0  0  0  0  0  0  0  0
    3.5117   -3.1729    0.0000 C   0  0  0  0  0  0  0  0  0  0  0  0
    3.9966   -2.5055    0.0000 O   0  0  0  0  0  0  0  0  0  0  0  0
    4.7812   -2.7604    0.0000 C   0  0  0  0  0  0  0  0  0  0  0  0
    5.4957   -2.3479    0.0000 C   0  0  0  0  0  0  0  0  0  0  0  0
  1  2  1  0  0  0  0
  2  3  4  0  0  0  0
  3  4  4  0  0  0  0
  4  5  4  0  0  0  0
  5  6  2  0  0  0  0
  5  7  4  0  0  0  0
  7  8  4  0  0  0  0
  8  9  4  0  0  0  0
  9 10  4  0  0  0  0
 10 11  4  0  0  0  0
 11 12  4  0  0  0  0
  2 12  4  0  0  0  0
  7 12  4  0  0  0  0
  3 13  1  0  0  0  0
 13 14  4  0  0  0  0
 14 15  4  0  0  0  0
 15 16  4  0  0  0  0
 16 17  1  0  0  0  0
 17 18  1  0  0  0  0
 18 19  1  0  0  0  0
 19 20  1  0  0  0  0
 16 20  4  0  0  0  0
 20 21  4  0  0  0  0
 13 21  4  0  0  0  0
M  END

> <ChembankId>
1182082

> <SMILES>
Cn1c(cc(=O)c2ccccc12)c3ccc4OCOc4c3

> <InChI>
1/C17H13NO3/c1-18-13-5-3-2-4-12(13)15(19)9-14(18)11-6-7-16-17(8-11)21-10-20-16/h2-9H,10H2,1H3

$$$$
3069539
  Marvin  11101114202D          

 23 27  0  0  1  0            999 V2000
    4.5960   -2.2961    0.0000 C   0  0  0  0  0  0  0  0  0  0  0  0
    3.7788   -2.1832    0.0000 N   0  0  0  0  0  0  0  0  0  0  0  0
    3.2071   -2.7780    0.0000 C   0  0  0  0  0  0  0  0  0  0  0  0
    2.4647   -2.4182    0.0000 C   0  0  0  0  0  0  0  0  0  0  0  0
    2.5776   -1.6009    0.0000 C   0  0  0  0  0  0  0  0  0  0  0  0
    2.0458   -0.9702    0.0000 C   0  0  0  0  0  0  0  0  0  0  0  0
    2.3261   -0.1943    0.0000 C   0  0  1  0  0  0  0  0  0  0  0  0
    1.7942    0.4364    0.0000 O   0  0  0  0  0  0  0  0  0  0  0  0
    3.1382   -0.0491    0.0000 C   0  0  2  0  0  0  0  0  0  0  0  0
    3.4185    0.7268    0.0000 O   0  0  0  0  0  0  0  0  0  0  0  0
    4.2306    0.8721    0.0000 C   0  0  0  0  0  0  0  0  0  0  0  0
    4.5109    1.6480    0.0000 O   0  0  0  0  0  0  0  0  0  0  0  0
    4.7624    0.2414    0.0000 C   0  0  0  0  0  0  0  0  0  0  0  0
    5.5745    0.3866    0.0000 C   0  0  0  0  0  0  0  0  0  0  0  0
    6.1064   -0.2441    0.0000 C   0  0  0  0  0  0  0  0  0  0  0  0
    6.9309   -0.2709    0.0000 O   0  0  0  0  0  0  0  0  0  0  0  0
    7.1602   -1.0634    0.0000 C   0  0  0  0  0  0  0  0  0  0  0  0
    6.4774   -1.5264    0.0000 O   0  0  0  0  0  0  0  0  0  0  0  0
    5.8261   -1.0201    0.0000 C   0  0  0  0  0  0  0  0  0  0  0  0
    5.0139   -1.1653    0.0000 C   0  0  0  0  0  0  0  0  0  0  0  0
    4.4821   -0.5346    0.0000 C   0  0  0  0  0  0  0  0  0  0  0  0
    3.6700   -0.6798    0.0000 C   0  0  0  0  0  0  0  0  0  0  0  0
    3.3897   -1.4557    0.0000 C   0  0  1  0  0  0  0  0  0  0  0  0
  1  2  1  0  0  0  0
  2  3  1  0  0  0  0
  3  4  1  0  0  0  0
  4  5  1  0  0  0  0
  5  6  2  0  0  0  0
  6  7  1  0  0  0  0
  7  8  1  1  0  0  0
  7  9  1  0  0  0  0
  9 10  1  6  0  0  0
 10 11  1  0  0  0  0
 11 12  2  0  0  0  0
 11 13  1  0  0  0  0
 13 14  4  0  0  0  0
 14 15  4  0  0  0  0
 15 16  1  0  0  0  0
 16 17  1  0  0  0  0
 17 18  1  0  0  0  0
 18 19  1  0  0  0  0
 15 19  4  0  0  0  0
 19 20  4  0  0  0  0
 20 21  4  0  0  0  0
 13 21  4  0  0  0  0
 21 22  1  0  0  0  0
  9 22  1  0  0  0  0
 22 23  1  0  0  0  0
 23  2  1  1  0  0  0
  5 23  1  0  0  0  0
M  END

> <ChembankId>
3069539

> <SMILES>
CN1CCC2=C[C@@H](O)[C@@H]3OC(=O)c4cc5OCOc5cc4C3[C@@H]12

> <InChI>
1/C17H17NO5/c1-18-3-2-8-4-11(19)16-14(15(8)18)9-5-12-13(22-7-21-12)6-10(9)17(20)23-16/h4-6,11,14-16,19H,2-3,7H2,1H3/t11-,14+,15-,16-/m0/s1

$$$$
1115322
  Marvin  11101114202D          

 12 12  0  0  0  0            999 V2000
    2.1434    2.0625    0.0000 C   0  0  0  0  0  0  0  0  0  0  0  0
    2.1434    1.2375    0.0000 O   0  0  0  0  0  0  0  0  0  0  0  0
    1.4289    0.8250    0.0000 C   0  0  0  0  0  0  0  0  0  0  0  0
    1.4289   -0.0000    0.0000 C   0  0  0  0  0  0  0  0  0  0  0  0
    0.7145   -0.4125    0.0000 C   0  0  0  0  0  0  0  0  0  0  0  0
    0.0000    0.0000    0.0000 N   0  0  0  0  0  0  0  0  0  0  0  0
   -0.7145   -0.4125    0.0000 C   0  0  0  0  0  0  0  0  0  0  0  0
    0.0000    0.8250    0.0000 C   0  0  0  0  0  0  0  0  0  0  0  0
   -0.7145    1.2375    0.0000 O   0  0  0  0  0  0  0  0  0  0  0  0
    0.7145    1.2375    0.0000 C   0  0  0  0  0  0  0  0  0  0  0  0
    0.7145    2.0625    0.0000 C   0  0  0  0  0  0  0  0  0  0  0  0
    0.7145    2.8875    0.0000 N   0  0  0  0  0  0  0  0  0  0  0  0
  1  2  1  0  0  0  0
  2  3  1  0  0  0  0
  3  4  4  0  0  0  0
  4  5  4  0  0  0  0
  5  6  4  0  0  0  0
  6  7  1  0  0  0  0
  6  8  4  0  0  0  0
  8  9  2  0  0  0  0
  8 10  4  0  0  0  0
  3 10  4  0  0  0  0
 10 11  1  0  0  0  0
 11 12  3  0  0  0  0
M  END

> <ChembankId>
1115322

> <SMILES>
COc1ccn(C)c(=O)c1C#N

> <InChI>
1/C8H8N2O2/c1-10-4-3-7(12-2)6(5-9)8(10)11/h3-4H,1-2H3

$$$$
3187624
  Marvin  11101114202D          

 23 27  0  0  1  0            999 V2000
   -2.4143    1.7329    0.0000 C   0  0  0  0  0  0  0  0  0  0  0  0
   -2.1344    0.9568    0.0000 C   0  0  0  0  0  0  0  0  0  0  0  0
   -1.3223    0.8113    0.0000 C   0  0  0  0  0  0  0  0  0  0  0  0
   -1.0405   -0.0286    0.0000 C   0  0  0  0  0  0  0  0  0  0  0  0
   -0.1886   -0.2040    0.0000 N   0  3  1  0  0  0  0  0  0  0  0  0
   -0.4909   -0.9717    0.0000 C   0  0  0  0  0  0  0  0  0  0  0  0
    0.5568   -0.6580    0.0000 C   0  0  0  0  0  0  0  0  0  0  0  0
    1.2037   -0.1133    0.0000 C   0  0  0  0  0  0  0  0  0  0  0  0
    0.9629    0.7471    0.0000 C   0  0  0  0  0  0  0  0  0  0  0  0
    0.1904    0.4933    0.0000 C   0  0  2  0  0  0  0  0  0  0  0  0
   -0.3422    1.0848    0.0000 C   0  0  0  0  0  0  0  0  0  0  0  0
   -0.7456    1.5265    0.0000 C   0  0  2  0  0  0  0  0  0  0  0  0
    0.0509    2.0128    0.0000 C   0  0  0  0  0  0  0  0  0  0  0  0
    0.8806    1.6325    0.0000 C   0  0  0  0  0  0  0  0  0  0  0  0
    1.6787    1.9483    0.0000 N   0  0  0  0  0  0  0  0  0  0  0  0
    2.2474    1.3370    0.0000 C   0  0  0  0  0  0  0  0  0  0  0  0
    3.0723    1.3194    0.0000 C   0  0  0  0  0  0  0  0  0  0  0  0
    3.4695    0.5963    0.0000 C   0  0  0  0  0  0  0  0  0  0  0  0
    3.0419   -0.1092    0.0000 C   0  0  0  0  0  0  0  0  0  0  0  0
    2.2171   -0.0917    0.0000 C   0  0  0  0  0  0  0  0  0  0  0  0
    1.8198    0.6314    0.0000 C   0  0  0  0  0  0  0  0  0  0  0  0
    0.0021    2.8363    0.0000 C   0  0  0  0  0  0  0  0  0  0  0  0
    0.6909    3.2903    0.0000 O   0  0  0  0  0  0  0  0  0  0  0  0
  1  2  1  0  0  0  0
  2  3  2  0  0  0  0
  3  4  1  0  0  0  0
  4  5  1  0  0  0  0
  5  6  1  1  0  0  0
  5  7  1  0  0  0  0
  7  8  1  0  0  0  0
  8  9  1  0  0  0  0
  9 10  1  0  0  0  0
  5 10  1  0  0  0  0
 10 11  1  1  0  0  0
 12 11  1  6  0  0  0
  3 12  1  0  0  0  0
 12 13  1  0  0  0  0
 13 14  2  0  0  0  0
  9 14  1  0  0  0  0
 14 15  1  0  0  0  0
 15 16  1  0  0  0  0
 16 17  4  0  0  0  0
 17 18  4  0  0  0  0
 18 19  4  0  0  0  0
 19 20  4  0  0  0  0
 20 21  4  0  0  0  0
 16 21  4  0  0  0  0
  9 21  1  0  0  0  0
 13 22  1  0  0  0  0
 22 23  2  0  0  0  0
M  CHG  1   5   1
M  END

> <ChembankId>
3187624

> <SMILES>
C/C=C\1/C[N@@+]2(C)CCC34[C@@H]2C[C@@H]1C(=C4Nc5ccccc53)C=O

> <InChI>
1/C20H22N2O/c1-3-13-11-22(2)9-8-20-16-6-4-5-7-17(16)21-19(20)15(12-23)14(13)10-18(20)22/h3-7,12,14,18H,8-11H2,1-2H3/p+1/b13-3-/t14-,18-,20+,22-/m1/s1

$$$$
3069541
  Marvin  11101114202D          

 19 21  0  0  1  0            999 V2000
    3.4699    2.3672    0.0000 C   0  0  0  0  0  0  0  0  0  0  0  0
    2.7814    1.9127    0.0000 C   0  0  1  0  0  0  0  0  0  0  0  0
    2.0090    2.2026    0.0000 C   0  0  0  0  0  0  0  0  0  0  0  0
    1.4946    1.5576    0.0000 C   0  0  2  0  0  0  0  0  0  0  0  0
    1.9491    0.8690    0.0000 O   0  0  0  0  0  0  0  0  0  0  0  0
    2.7444    1.0885    0.0000 C   0  0  0  0  0  0  0  0  0  0  0  0
    3.3894    0.5741    0.0000 O   0  0  0  0  0  0  0  0  0  0  0  0
    0.6696    1.5576    0.0000 C   0  0  1  0  0  0  0  0  0  0  0  0
    0.2151    0.8690    0.0000 C   0  0  0  0  0  0  0  0  0  0  0  0
   -0.5802    1.0885    0.0000 C   0  0  0  0  0  0  0  0  0  0  0  0
   -0.6172    1.9127    0.0000 C   0  0  0  0  0  0  0  0  0  0  0  0
   -1.3057    2.3672    0.0000 O   0  0  0  0  0  0  0  0  0  0  0  0
    0.1552    2.2026    0.0000 C   0  0  0  0  0  0  0  0  0  0  0  0
    0.3388    3.0069    0.0000 C   0  0  0  0  0  0  0  0  0  0  0  0
   -0.3062    3.5213    0.0000 C   0  0  0  0  0  0  0  0  0  0  0  0
    1.0821    3.3648    0.0000 C   0  0  0  0  0  0  0  0  0  0  0  0
    1.8254    3.0069    0.0000 C   0  0  2  0  0  0  0  0  0  0  0  0
    2.4704    3.5213    0.0000 O   0  0  0  0  0  0  0  0  0  0  0  0
    0.5050    0.0966    0.0000 C   0  0  0  0  0  0  0  0  0  0  0  0
  2  1  1  6  0  0  0
  2  3  1  0  0  0  0
  3  4  1  0  0  0  0
  4  5  1  6  0  0  0
  5  6  1  0  0  0  0
  2  6  1  0  0  0  0
  6  7  2  0  0  0  0
  4  8  1  0  0  0  0
  8  9  1  0  0  0  0
  9 10  2  0  0  0  0
 10 11  1  0  0  0  0
 11 12  2  0  0  0  0
 11 13  1  0  0  0  0
  8 13  1  1  0  0  0
 13 14  2  0  0  0  0
 14 15  1  0  0  0  0
 14 16  1  0  0  0  0
 16 17  1  0  0  0  0
  3 17  1  0  0  0  0
 17 18  1  6  0  0  0
  9 19  1  0  0  0  0
M  END

> <ChembankId>
3069541

> <SMILES>
C[C@H]1[C@H]2[C@H](OC1=O)[C@H]3C(=CC(=O)C3=C(C)C[C@@H]2O)C

> <InChI>
1/C15H18O4/c1-6-4-10(17)13-8(3)15(18)19-14(13)12-7(2)5-9(16)11(6)12/h5,8,10,12-14,17H,4H2,1-3H3

$$$$
3187625
  Marvin  11101114202D          

 44 50  0  0  1  0            999 V2000
    6.2280    3.0625    0.0000 C   0  0  0  0  0  0  0  0  0  0  0  0
    5.5769    2.5558    0.0000 C   0  0  0  0  0  0  0  0  0  0  0  0
    4.8125    2.8663    0.0000 N   0  3  0  0  0  0  0  0  0  0  0  0
    4.9010    3.6866    0.0000 C   0  0  0  0  0  0  0  0  0  0  0  0
    4.3732    2.3053    0.0000 C   0  0  0  0  0  0  0  0  0  0  0  0
    3.6643    2.6251    0.0000 C   0  0  0  0  0  0  0  0  0  0  0  0
    3.2868    3.2450    0.0000 C   0  0  0  0  0  0  0  0  0  0  0  0
    3.9996    2.7258    0.0000 C   0  0  0  0  0  0  0  0  0  0  0  0
    4.0005    1.7541    0.0000 C   0  0  0  0  0  0  0  0  0  0  0  0
    3.5724    1.2375    0.0000 C   0  0  0  0  0  0  0  0  0  0  0  0
    4.3896    1.3765    0.0000 C   0  0  0  0  0  0  0  0  0  0  0  0
    2.8579    0.8250    0.0000 O   0  0  0  0  0  0  0  0  0  0  0  0
    2.8579    0.0000    0.0000 C   0  0  0  0  0  0  0  0  0  0  0  0
    3.5724   -0.4125    0.0000 O   0  0  0  0  0  0  0  0  0  0  0  0
    2.1434   -0.4125    0.0000 C   0  0  1  0  0  0  0  0  0  0  0  0
    2.1434   -1.2375    0.0000 C   0  0  0  0  0  0  0  0  0  0  0  0
    1.4289   -1.6500    0.0000 C   0  0  0  0  0  0  0  0  0  0  0  0
    0.7145   -1.2375    0.0000 C   0  0  0  0  0  0  0  0  0  0  0  0
    0.4323   -2.0127    0.0000 C   0  0  0  0  0  0  0  0  0  0  0  0
   -0.3802   -2.1560    0.0000 O   0  0  0  0  0  0  0  0  0  0  0  0
    0.9626   -2.6447    0.0000 O   0  0  0  0  0  0  0  0  0  0  0  0
    0.6804   -3.4200    0.0000 C   0  0  0  0  0  0  0  0  0  0  0  0
    0.6845   -4.0910    0.0000 C   0  0  0  0  0  0  0  0  0  0  0  0
    1.3098   -4.8347    0.0000 C   0  0  0  0  0  0  0  0  0  0  0  0
    2.1896   -4.7743    0.0000 C   0  0  0  0  0  0  0  0  0  0  0  0
    1.5019   -4.5420    0.0000 C   0  0  0  0  0  0  0  0  0  0  0  0
    0.7533   -4.7527    0.0000 C   0  0  0  0  0  0  0  0  0  0  0  0
    0.1437   -4.0518    0.0000 C   0  0  0  0  0  0  0  0  0  0  0  0
    0.7774   -5.4649    0.0000 N   0  3  0  0  0  0  0  0  0  0  0  0
    0.0917   -5.9237    0.0000 C   0  0  0  0  0  0  0  0  0  0  0  0
    1.0317   -6.2497    0.0000 C   0  0  0  0  0  0  0  0  0  0  0  0
    0.4792   -6.8624    0.0000 C   0  0  0  0  0  0  0  0  0  0  0  0
   -0.0980   -1.0942    0.0000 C   0  0  0  0  0  0  0  0  0  0  0  0
   -0.6283   -1.7262    0.0000 C   0  0  0  0  0  0  0  0  0  0  0  0
   -1.4408   -1.5830    0.0000 C   0  0  0  0  0  0  0  0  0  0  0  0
   -1.7229   -0.8077    0.0000 C   0  0  0  0  0  0  0  0  0  0  0  0
   -1.1926   -0.1757    0.0000 C   0  0  0  0  0  0  0  0  0  0  0  0
   -0.3802   -0.3190    0.0000 C   0  0  0  0  0  0  0  0  0  0  0  0
    0.7145   -0.4125    0.0000 C   0  0  0  0  0  0  0  0  0  0  0  0
    0.0000    0.0000    0.0000 C   0  0  0  0  0  0  0  0  0  0  0  0
    0.0000    0.8250    0.0000 C   0  0  0  0  0  0  0  0  0  0  0  0
    0.7145    1.2375    0.0000 C   0  0  0  0  0  0  0  0  0  0  0  0
    1.4289    0.8250    0.0000 C   0  0  0  0  0  0  0  0  0  0  0  0
    1.4289    0.0000    0.0000 C   0  0  0  0  0  0  0  0  0  0  0  0
  1  2  1  0  0  0  0
  2  3  1  0  0  0  0
  3  4  1  0  0  0  0
  3  5  1  0  0  0  0
  5  6  1  0  0  0  0
  6  7  1  0  0  0  0
  7  8  1  0  0  0  0
  3  8  1  0  0  0  0
  8  9  1  0  0  0  0
  9 10  1  0  0  0  0
 10 11  1  0  0  0  0
  5 11  1  0  0  0  0
 10 12  1  0  0  0  0
 12 13  1  0  0  0  0
 13 14  2  0  0  0  0
 15 13  1  1  0  0  0
 15 16  1  0  0  0  0
 16 17  1  0  0  0  0
 17 18  1  0  0  0  0
 18 19  1  0  0  0  0
 19 20  2  0  0  0  0
 19 21  1  0  0  0  0
 21 22  1  0  0  0  0
 22 23  1  0  0  0  0
 23 24  1  0  0  0  0
 24 25  1  0  0  0  0
 25 26  1  0  0  0  0
 26 27  1  0  0  0  0
 27 28  1  0  0  0  0
 22 28  1  0  0  0  0
 27 29  1  0  0  0  0
 24 29  1  0  0  0  0
 29 30  1  0  0  0  0
 29 31  1  0  0  0  0
 31 32  1  0  0  0  0
 18 33  1  0  0  0  0
 33 34  4  0  0  0  0
 34 35  4  0  0  0  0
 35 36  4  0  0  0  0
 36 37  4  0  0  0  0
 37 38  4  0  0  0  0
 33 38  4  0  0  0  0
 18 39  1  0  0  0  0
 39 40  4  0  0  0  0
 40 41  4  0  0  0  0
 41 42  4  0  0  0  0
 42 43  4  0  0  0  0
 43 44  4  0  0  0  0
 15 44  1  0  0  0  0
 39 44  4  0  0  0  0
M  CHG  2   3   1  29   1
M  END

> <ChembankId>
3187625

> <SMILES>
CC[N+]1(C)C2CCC1CC(C2)OC(=O)[C@H]3CCC(C(=O)OC4CC5CCC(C4)[N+]5(C)CC)(c6ccccc6)c7ccccc37

> <InChI>
1/C38H52N2O4/c1-5-39(3)27-16-17-28(39)23-31(22-27)43-36(41)34-20-21-38(26-12-8-7-9-13-26,35-15-11-10-14-33(34)35)37(42)44-32-24-29-18-19-30(25-32)40(29,4)6-2/h7-15,27-32,34H,5-6,16-25H2,1-4H3/q+2/t27-,28+,29-,30+,31-,32-,34-,38+,39-,40+/m0/s1

$$$$
3487155
  Marvin  11101114202D          

 23 28  0  0  0  0            999 V2000
   -1.1799   -2.3797    0.0000 C   0  0  0  0  0  0  0  0  0  0  0  0
   -1.2958   -1.5629    0.0000 C   0  0  0  0  0  0  0  0  0  0  0  0
   -0.6463   -1.0541    0.0000 N   0  0  0  0  0  0  0  0  0  0  0  0
    0.1190   -1.3621    0.0000 C   0  0  0  0  0  0  0  0  0  0  0  0
    0.2349   -2.1789    0.0000 C   0  0  0  0  0  0  0  0  0  0  0  0
   -0.4145   -2.6877    0.0000 C   0  0  0  0  0  0  0  0  0  0  0  0
    1.0655   -1.7586    0.0000 C   0  0  0  0  0  0  0  0  0  0  0  0
    1.2052   -0.7200    0.0000 C   0  0  0  0  0  0  0  0  0  0  0  0
    0.9605   -0.1141    0.0000 C   0  0  0  0  0  0  0  0  0  0  0  0
    0.9228   -1.0102    0.0000 C   0  0  0  0  0  0  0  0  0  0  0  0
    1.6614   -1.3425    0.0000 C   0  0  0  0  0  0  0  0  0  0  0  0
    1.8232   -2.1515    0.0000 N   0  0  0  0  0  0  0  0  0  0  0  0
    2.6047   -2.4158    0.0000 C   0  0  0  0  0  0  0  0  0  0  0  0
    3.2244   -1.8712    0.0000 C   0  0  0  0  0  0  0  0  0  0  0  0
    3.0626   -1.0623    0.0000 C   0  0  0  0  0  0  0  0  0  0  0  0
    2.2811   -0.7979    0.0000 C   0  0  0  0  0  0  0  0  0  0  0  0
    2.2910    0.0270    0.0000 N   0  0  0  0  0  0  0  0  0  0  0  0
    3.0787    0.2725    0.0000 C   0  0  0  0  0  0  0  0  0  0  0  0
    3.4233    1.0221    0.0000 C   0  0  0  0  0  0  0  0  0  0  0  0
    4.2447    1.0984    0.0000 C   0  0  0  0  0  0  0  0  0  0  0  0
    4.7216    0.4252    0.0000 C   0  0  0  0  0  0  0  0  0  0  0  0
    4.3770   -0.3244    0.0000 C   0  0  0  0  0  0  0  0  0  0  0  0
    3.5555   -0.4007    0.0000 C   0  0  0  0  0  0  0  0  0  0  0  0
  1  2  1  0  0  0  0
  2  3  1  0  0  0  0
  3  4  1  0  0  0  0
  4  5  1  0  0  0  0
  5  6  1  0  0  0  0
  1  6  1  0  0  0  0
  5  7  1  0  0  0  0
  7  8  1  0  0  0  0
  8  9  1  0  0  0  0
  9 10  1  0  0  0  0
  4 10  1  0  0  0  0
 10 11  1  0  0  0  0
 11 12  1  0  0  0  0
  7 12  1  0  0  0  0
 12 13  1  0  0  0  0
 13 14  1  0  0  0  0
 14 15  1  0  0  0  0
 15 16  4  0  0  0  0
 11 16  1  0  0  0  0
 16 17  4  0  0  0  0
 17 18  4  0  0  0  0
 18 19  4  0  0  0  0
 19 20  4  0  0  0  0
 20 21  4  0  0  0  0
 21 22  4  0  0  0  0
 22 23  4  0  0  0  0
 15 23  4  0  0  0  0
 18 23  4  0  0  0  0
M  STY  1   1 DAT
M  SAL   1  1  17
M  SDT   1 MRV_IMPLICIT_H                                        
M  SDD   1     0.0000    0.0000    DR    ALL  0       0  
M  SED   1 IMPL_H1
M  END

> <ChembankId>
3487155

> <SMILES>
C1CNC2C(C1)C3CCC2C4N3CCc5c4[nH]c6ccccc56

> <InChI>
1/C20H25N3/c1-2-6-16-12(4-1)13-9-11-23-17-8-7-15(20(23)19(13)22-16)18-14(17)5-3-10-21-18/h1-2,4,6,14-15,17-18,20-22H,3,5,7-11H2/t14-,15-,17-,18+,20-/m0/s1

$$$$
3069544
  Marvin  11101114202D          

 24 28  0  0  1  0            999 V2000
    0.9821    0.2912    0.0000 C   0  0  0  0  0  0  0  0  0  0  0  0
    1.7942    0.4364    0.0000 O   0  0  0  0  0  0  0  0  0  0  0  0
    2.3261   -0.1943    0.0000 C   0  0  2  0  0  0  0  0  0  0  0  0
    2.0458   -0.9702    0.0000 C   0  0  0  0  0  0  0  0  0  0  0  0
    2.5776   -1.6009    0.0000 C   0  0  0  0  0  0  0  0  0  0  0  0
    2.4647   -2.4182    0.0000 C   0  0  0  0  0  0  0  0  0  0  0  0
    3.2071   -2.7780    0.0000 C   0  0  0  0  0  0  0  0  0  0  0  0
    3.7788   -2.1832    0.0000 N   0  0  0  0  0  0  0  0  0  0  0  0
    4.5960   -2.2961    0.0000 C   0  0  0  0  0  0  0  0  0  0  0  0
    3.3897   -1.4557    0.0000 C   0  0  2  0  0  0  0  0  0  0  0  0
    3.6700   -0.6798    0.0000 C   0  0  0  0  0  0  0  0  0  0  0  0
    3.1382   -0.0491    0.0000 C   0  0  1  0  0  0  0  0  0  0  0  0
    3.4185    0.7268    0.0000 O   0  0  0  0  0  0  0  0  0  0  0  0
    4.2306    0.8721    0.0000 C   0  0  0  0  0  0  0  0  0  0  0  0
    4.5109    1.6480    0.0000 O   0  0  0  0  0  0  0  0  0  0  0  0
    4.7624    0.2414    0.0000 C   0  0  0  0  0  0  0  0  0  0  0  0
    5.5745    0.3866    0.0000 C   0  0  0  0  0  0  0  0  0  0  0  0
    6.1064   -0.2441    0.0000 C   0  0  0  0  0  0  0  0  0  0  0  0
    6.9309   -0.2709    0.0000 O   0  0  0  0  0  0  0  0  0  0  0  0
    7.1602   -1.0634    0.0000 C   0  0  0  0  0  0  0  0  0  0  0  0
    6.4774   -1.5264    0.0000 O   0  0  0  0  0  0  0  0  0  0  0  0
    5.8261   -1.0201    0.0000 C   0  0  0  0  0  0  0  0  0  0  0  0
    5.0139   -1.1653    0.0000 C   0  0  0  0  0  0  0  0  0  0  0  0
    4.4821   -0.5346    0.0000 C   0  0  0  0  0  0  0  0  0  0  0  0
  1  2  1  0  0  0  0
  3  2  1  1  0  0  0
  3  4  1  0  0  0  0
  4  5  2  0  0  0  0
  5  6  1  0  0  0  0
  6  7  1  0  0  0  0
  7  8  1  0  0  0  0
  8  9  1  0  0  0  0
 10  8  1  1  0  0  0
  5 10  1  0  0  0  0
 10 11  1  0  0  0  0
 11 12  1  0  0  0  0
  3 12  1  0  0  0  0
 12 13  1  6  0  0  0
 13 14  1  0  0  0  0
 14 15  2  0  0  0  0
 14 16  1  0  0  0  0
 16 17  4  0  0  0  0
 17 18  4  0  0  0  0
 18 19  1  0  0  0  0
 19 20  1  0  0  0  0
 20 21  1  0  0  0  0
 21 22  1  0  0  0  0
 18 22  4  0  0  0  0
 22 23  4  0  0  0  0
 23 24  4  0  0  0  0
 11 24  1  0  0  0  0
 16 24  4  0  0  0  0
M  END

> <ChembankId>
3069544

> <SMILES>
CO[C@@H]1C=C2CCN(C)[C@@H]2C3[C@H]1OC(=O)c4cc5OCOc5cc34

> <InChI>
1/C18H19NO5/c1-19-4-3-9-5-14(21-2)17-15(16(9)19)10-6-12-13(23-8-22-12)7-11(10)18(20)24-17/h5-7,14-17H,3-4,8H2,1-2H3/t14-,15+,16+,17-/m1/s1

$$$$
3187747
  Marvin  11101114202D          

 21 23  0  0  0  0            999 V2000
    3.7733   -5.6476    0.0000 C   0  0  0  0  0  0  0  0  0  0  0  0
    3.3615   -4.9327    0.0000 O   0  0  0  0  0  0  0  0  0  0  0  0
    3.7747   -4.2186    0.0000 C   0  0  0  0  0  0  0  0  0  0  0  0
    3.3629   -3.5037    0.0000 C   0  0  0  0  0  0  0  0  0  0  0  0
    3.7761   -2.7897    0.0000 C   0  0  0  0  0  0  0  0  0  0  0  0
    4.6011   -2.7905    0.0000 C   0  0  0  0  0  0  0  0  0  0  0  0
    5.0129   -3.5054    0.0000 C   0  0  0  0  0  0  0  0  0  0  0  0
    4.5997   -4.2194    0.0000 C   0  0  0  0  0  0  0  0  0  0  0  0
    5.0115   -4.9343    0.0000 O   0  0  0  0  0  0  0  0  0  0  0  0
    3.3643   -2.0748    0.0000 C   0  0  0  0  0  0  0  0  0  0  0  0
    3.7775   -1.3607    0.0000 O   0  0  0  0  0  0  0  0  0  0  0  0
    2.5393   -2.0740    0.0000 O   0  0  0  0  0  0  0  0  0  0  0  0
    2.1275   -1.3591    0.0000 C   0  0  0  0  0  0  0  0  0  0  0  0
    1.6113   -0.9304    0.0000 C   0  0  0  0  0  0  0  0  0  0  0  0
    0.6396   -0.9304    0.0000 C   0  0  0  0  0  0  0  0  0  0  0  0
    0.1197   -1.6427    0.0000 C   0  0  0  0  0  0  0  0  0  0  0  0
    0.7400   -1.2658    0.0000 C   0  0  0  0  0  0  0  0  0  0  0  0
    1.0605   -0.5572    0.0000 C   0  0  0  0  0  0  0  0  0  0  0  0
    1.9893   -0.5417    0.0000 C   0  0  0  0  0  0  0  0  0  0  0  0
    0.4999   -0.1173    0.0000 N   0  0  0  0  0  0  0  0  0  0  0  0
    0.0773    0.5912    0.0000 C   0  0  0  0  0  0  0  0  0  0  0  0
  1  2  1  0  0  0  0
  2  3  1  0  0  0  0
  3  4  4  0  0  0  0
  4  5  4  0  0  0  0
  5  6  4  0  0  0  0
  6  7  4  0  0  0  0
  7  8  4  0  0  0  0
  3  8  4  0  0  0  0
  8  9  1  0  0  0  0
  5 10  1  0  0  0  0
 10 11  2  0  0  0  0
 10 12  1  0  0  0  0
 12 13  1  0  0  0  0
 13 14  1  0  0  0  0
 14 15  1  0  0  0  0
 15 16  1  0  0  0  0
 16 17  1  0  0  0  0
 17 18  1  0  0  0  0
 18 19  1  0  0  0  0
 13 19  1  0  0  0  0
 18 20  1  0  0  0  0
 15 20  1  0  0  0  0
 20 21  1  0  0  0  0
M  END

> <ChembankId>
3187747

> <SMILES>
COc1cc(ccc1O)C(=O)OC2CC3CCC(C2)N3C

> <InChI>
1/C16H21NO4/c1-17-11-4-5-12(17)9-13(8-11)21-16(19)10-3-6-14(18)15(7-10)20-2/h3,6-7,11-13,18H,4-5,8-9H2,1-2H3/t11-,12+,13-

$$$$
3187748
  Marvin  11101114202D          

 39 46  0  0  1  0            999 V2000
    0.3971   -2.4057    0.0000 C   0  0  0  0  0  0  0  0  0  0  0  0
    0.9218   -1.7691    0.0000 C   0  0  0  0  0  0  0  0  0  0  0  0
    1.7355   -1.9052    0.0000 O   0  0  0  0  0  0  0  0  0  0  0  0
    0.6329   -0.9963    0.0000 O   0  0  0  0  0  0  0  0  0  0  0  0
    1.1576   -0.3597    0.0000 C   0  0  1  0  0  0  0  0  0  0  0  0
    0.9893    0.5984    0.0000 C   0  0  0  0  0  0  0  0  0  0  0  0
    0.0541    0.3662    0.0000 C   0  0  1  0  0  0  0  0  0  0  0  0
    0.4447    0.0750    0.0000 C   0  0  1  0  0  0  0  0  0  0  0  0
    1.4446    0.3467    0.0000 C   0  0  2  0  0  0  0  0  0  0  0  0
    1.5392   -0.7185    0.0000 C   0  0  1  0  0  0  0  0  0  0  0  0
    1.1750   -1.4588    0.0000 O   0  0  0  0  0  0  0  0  0  0  0  0
    2.1293   -0.3420    0.0000 C   0  0  2  0  0  0  0  0  0  0  0  0
    2.5997    0.3303    0.0000 C   0  0  0  0  0  0  0  0  0  0  0  0
    3.4216    0.2590    0.0000 C   0  0  0  0  0  0  0  0  0  0  0  0
    2.2435    1.0917    0.0000 C   0  0  0  0  0  0  0  0  0  0  0  0
    1.4056    1.1026    0.0000 C   0  0  0  0  0  0  0  0  0  0  0  0
    0.9112    1.7818    0.0000 C   0  0  0  0  0  0  0  0  0  0  0  0
    0.0510    1.5983    0.0000 C   0  0  0  0  0  0  0  0  0  0  0  0
   -0.3107    1.1199    0.0000 C   0  0  0  0  0  0  0  0  0  0  0  0
   -0.4837   -0.3192    0.0000 C   0  0  2  0  0  0  0  0  0  0  0  0
   -0.1442   -1.0711    0.0000 O   0  0  0  0  0  0  0  0  0  0  0  0
   -0.6256   -1.7411    0.0000 C   0  0  0  0  0  0  0  0  0  0  0  0
   -0.2861   -2.4930    0.0000 O   0  0  0  0  0  0  0  0  0  0  0  0
   -1.4465   -1.6592    0.0000 C   0  0  0  0  0  0  0  0  0  0  0  0
   -1.3165   -0.2715    0.0000 C   0  0  2  0  0  0  0  0  0  0  0  0
   -1.7198    0.4450    0.0000 C   0  0  0  0  0  0  0  0  0  0  0  0
   -1.2431    1.0808    0.0000 C   0  0  2  0  0  0  0  0  0  0  0  0
   -1.9324    1.5340    0.0000 C   0  0  0  0  0  0  0  0  0  0  0  0
   -0.8849    1.7069    0.0000 C   0  0  0  0  0  0  0  0  0  0  0  0
   -0.5066    0.6925    0.0000 N   0  0  0  0  0  0  0  0  0  0  0  0
   -1.7531   -0.9715    0.0000 O   0  0  0  0  0  0  0  0  0  0  0  0
   -2.5776   -0.9434    0.0000 C   0  0  0  0  0  0  0  0  0  0  0  0
   -2.9655   -0.2153    0.0000 O   0  0  0  0  0  0  0  0  0  0  0  0
   -3.0142   -1.6434    0.0000 C   0  0  0  0  0  0  0  0  0  0  0  0
   -2.6262   -2.3715    0.0000 C   0  0  0  0  0  0  0  0  0  0  0  0
   -3.0628   -3.0715    0.0000 C   0  0  0  0  0  0  0  0  0  0  0  0
   -3.8873   -3.0435    0.0000 C   0  0  0  0  0  0  0  0  0  0  0  0
   -4.2753   -2.3154    0.0000 C   0  0  0  0  0  0  0  0  0  0  0  0
   -3.8387   -1.6153    0.0000 C   0  0  0  0  0  0  0  0  0  0  0  0
  1  2  1  0  0  0  0
  2  3  2  0  0  0  0
  2  4  1  0  0  0  0
  5  4  1  1  0  0  0
  5  6  1  0  0  0  0
  6  7  1  0  0  0  0
  7  8  1  0  0  0  0
  8  9  1  0  0  0  0
  9 10  1  0  0  0  0
 10 11  1  6  0  0  0
 10 12  1  0  0  0  0
  5 12  1  0  0  0  0
 12 13  1  1  0  0  0
 13 14  2  0  0  0  0
 13 15  1  0  0  0  0
 15 16  1  0  0  0  0
  9 16  1  1  0  0  0
  6 16  1  0  0  0  0
 16 17  1  0  0  0  0
 17 18  1  0  0  0  0
 18 19  1  0  0  0  0
  7 19  1  1  0  0  0
  7 20  1  0  0  0  0
 20 21  1  6  0  0  0
 21 22  1  0  0  0  0
 22 23  2  0  0  0  0
 22 24  1  0  0  0  0
 20 25  1  0  0  0  0
 25 26  1  0  0  0  0
 26 27  1  0  0  0  0
 19 27  1  0  0  0  0
 27 28  1  6  0  0  0
 27 29  1  0  0  0  0
 29 30  1  0  0  0  0
  8 30  1  1  0  0  0
 18 30  1  0  0  0  0
 25 31  1  1  0  0  0
 31 32  1  0  0  0  0
 32 33  2  0  0  0  0
 32 34  1  0  0  0  0
 34 35  4  0  0  0  0
 35 36  4  0  0  0  0
 36 37  4  0  0  0  0
 37 38  4  0  0  0  0
 38 39  4  0  0  0  0
 34 39  4  0  0  0  0
M  END

> <ChembankId>
3187748

> <SMILES>
CC(=O)O[C@H]1C2[C@]3([C@H]4[C@@H]5[C@@H](O)[C@@H]1C(=C)CC52CC6C37)[C@H](OC(=O)C)[C@H](C[C@@]7(C)CN46)OC(=O)c8ccccc8

> <InChI>
1/C31H35NO7/c1-14-10-30-11-18-24-29(4)12-19(39-28(36)17-8-6-5-7-9-17)27(38-16(3)34)31(24)25(30)23(37-15(2)33)20(14)22(35)21(30)26(31)32(18)13-29/h5-9,18-27,35H,1,10-13H2,2-4H3/t18-,19+,20+,21-,22-,23+,24+,25-,26+,27-,29+,30-,31+/m1/s1

$$$$
3187750
  Marvin  11101114202D          

 42 48  0  0  1  0            999 V2000
   -5.5115   -4.7605    0.0000 C   0  0  0  0  0  0  0  0  0  0  0  0
   -4.8991   -5.3133    0.0000 C   0  0  0  0  0  0  0  0  0  0  0  0
   -5.0716   -6.1201    0.0000 C   0  0  0  0  0  0  0  0  0  0  0  0
   -4.1142   -5.0593    0.0000 C   0  0  0  0  0  0  0  0  0  0  0  0
   -3.5017   -5.6121    0.0000 C   0  0  2  0  0  0  0  0  0  0  0  0
   -2.7168   -5.3581    0.0000 N   0  0  0  0  0  0  0  0  0  0  0  0
   -2.3804   -4.6048    0.0000 C   0  0  0  0  0  0  0  0  0  0  0  0
   -2.7920   -3.8898    0.0000 O   0  0  0  0  0  0  0  0  0  0  0  0
   -1.5600   -4.6920    0.0000 C   0  0  2  0  0  0  0  0  0  0  0  0
   -1.5590   -3.8670    0.0000 N   0  0  0  0  0  0  0  0  0  0  0  0
   -0.8440   -3.4554    0.0000 C   0  0  0  0  0  0  0  0  0  0  0  0
   -0.1301   -3.8687    0.0000 O   0  0  0  0  0  0  0  0  0  0  0  0
   -0.8430   -2.6304    0.0000 C   0  0  1  0  0  0  0  0  0  0  0  0
   -1.5570   -2.2170    0.0000 C   0  0  0  0  0  0  0  0  0  0  0  0
   -1.5560   -1.3920    0.0000 N   0  0  0  0  0  0  0  0  0  0  0  0
   -2.2700   -0.9786    0.0000 C   0  0  0  0  0  0  0  0  0  0  0  0
   -0.8411   -0.9804    0.0000 C   0  0  2  0  0  0  0  0  0  0  0  0
   -0.8411   -0.1554    0.0000 C   0  0  0  0  0  0  0  0  0  0  0  0
   -0.1286    0.2571    0.0000 C   0  0  0  0  0  0  0  0  0  0  0  0
    0.1714    1.1143    0.0000 C   0  0  0  0  0  0  0  0  0  0  0  0
    0.9964    1.1143    0.0000 N   0  0  0  0  0  0  0  0  0  0  0  0
    1.3018    0.2571    0.0000 C   0  0  0  0  0  0  0  0  0  0  0  0
    2.0143   -0.1554    0.0000 C   0  0  0  0  0  0  0  0  0  0  0  0
    2.0143   -0.9804    0.0000 C   0  0  0  0  0  0  0  0  0  0  0  0
    1.3018   -1.3929    0.0000 C   0  0  0  0  0  0  0  0  0  0  0  0
    0.5839   -0.9804    0.0000 C   0  0  0  0  0  0  0  0  0  0  0  0
   -0.1271   -1.3937    0.0000 C   0  0  0  0  0  0  0  0  0  0  0  0
   -0.1281   -2.2187    0.0000 C   0  0  0  0  0  0  0  0  0  0  0  0
    0.5839   -0.1554    0.0000 C   0  0  0  0  0  0  0  0  0  0  0  0
   -1.3894   -5.4992    0.0000 O   0  0  0  0  0  0  0  0  0  0  0  0
   -2.1044   -5.9108    0.0000 C   0  0  2  0  0  0  0  0  0  0  0  0
   -1.4375   -6.3965    0.0000 O   0  0  0  0  0  0  0  0  0  0  0  0
   -2.2769   -6.7176    0.0000 C   0  0  2  0  0  0  0  0  0  0  0  0
   -1.7928   -7.3856    0.0000 C   0  0  0  0  0  0  0  0  0  0  0  0
   -2.2785   -8.0525    0.0000 C   0  0  0  0  0  0  0  0  0  0  0  0
   -3.0628   -7.7966    0.0000 C   0  0  0  0  0  0  0  0  0  0  0  0
   -3.0618   -6.9716    0.0000 N   0  0  0  0  0  0  0  0  0  0  0  0
   -3.6742   -6.4188    0.0000 C   0  0  0  0  0  0  0  0  0  0  0  0
   -4.4592   -6.6728    0.0000 O   0  0  0  0  0  0  0  0  0  0  0  0
   -0.7394   -4.6067    0.0000 C   0  0  0  0  0  0  0  0  0  0  0  0
   -0.2553   -5.2748    0.0000 C   0  0  0  0  0  0  0  0  0  0  0  0
   -0.0244   -4.1951    0.0000 C   0  0  0  0  0  0  0  0  0  0  0  0
  1  2  1  0  0  0  0
  2  3  1  0  0  0  0
  2  4  1  0  0  0  0
  5  4  1  6  0  0  0
  5  6  1  0  0  0  0
  6  7  1  0  0  0  0
  7  8  2  0  0  0  0
  7  9  1  0  0  0  0
  9 10  1  6  0  0  0
 10 11  1  0  0  0  0
 11 12  2  0  0  0  0
 13 11  1  1  0  0  0
 13 14  1  0  0  0  0
 14 15  1  0  0  0  0
 15 16  1  0  0  0  0
 17 15  1  6  0  0  0
 17 18  1  0  0  0  0
 18 19  1  0  0  0  0
 19 20  4  0  0  0  0
 20 21  4  0  0  0  0
 21 22  4  0  0  0  0
 22 23  4  0  0  0  0
 23 24  4  0  0  0  0
 24 25  4  0  0  0  0
 25 26  4  0  0  0  0
 26 27  1  0  0  0  0
 17 27  1  0  0  0  0
 27 28  2  0  0  0  0
 13 28  1  0  0  0  0
 26 29  4  0  0  0  0
 19 29  4  0  0  0  0
 22 29  4  0  0  0  0
  9 30  1  0  0  0  0
 30 31  1  0  0  0  0
  6 31  1  0  0  0  0
 31 32  1  6  0  0  0
 31 33  1  0  0  0  0
 33 34  1  0  0  0  0
 34 35  1  0  0  0  0
 35 36  1  0  0  0  0
 36 37  1  0  0  0  0
 33 37  1  6  0  0  0
 37 38  1  0  0  0  0
  5 38  1  0  0  0  0
 38 39  2  0  0  0  0
  9 40  1  1  0  0  0
 40 41  1  0  0  0  0
 40 42  1  0  0  0  0
M  STY  1   1 DAT
M  SAL   1  1  21
M  SDT   1 MRV_IMPLICIT_H                                        
M  SDD   1     0.0000    0.0000    DR    ALL  0       0  
M  SED   1 IMPL_H1
M  END

> <ChembankId>
3187750

> <SMILES>
CC(C)C[C@@H]1N2C(=O)[C@](NC(=O)[C@H]3CN(C)[C@@H]4Cc5c[nH]c6cccc(C4=C3)c56)(O[C@@]2(O)[C@@H]7CCCN7C1=O)C(C)C

> <InChI>
1/C32H41N5O5/c1-17(2)12-25-29(39)36-11-7-10-26(36)32(41)37(25)30(40)31(42-32,18(3)4)34-28(38)20-13-22-21-8-6-9-23-27(21)19(15-33-23)14-24(22)35(5)16-20/h6,8-9,13,15,17-18,20,24-26,33,41H,7,10-12,14,16H2,1-5H3,(H,34,38)

$$$$
3069582
  Marvin  11101114202D          

  9  9  0  0  1  0            999 V2000
    1.2448    1.8695    0.0000 C   0  0  0  0  0  0  0  0  0  0  0  0
    0.7145    1.2375    0.0000 C   0  0  1  0  0  0  0  0  0  0  0  0
    0.1842    1.8695    0.0000 O   0  0  0  0  0  0  0  0  0  0  0  0
    1.4289    0.8250    0.0000 C   0  0  0  0  0  0  0  0  0  0  0  0
    1.4289    0.0000    0.0000 C   0  0  0  0  0  0  0  0  0  0  0  0
    0.7145   -0.4125    0.0000 O   0  0  0  0  0  0  0  0  0  0  0  0
    0.0000   -0.0000    0.0000 C   0  0  0  0  0  0  0  0  0  0  0  0
   -0.7145   -0.4125    0.0000 O   0  0  0  0  0  0  0  0  0  0  0  0
   -0.0000    0.8250    0.0000 C   0  0  0  0  0  0  0  0  0  0  0  0
  2  1  1  1  0  0  0
  2  3  1  6  0  0  0
  2  4  1  0  0  0  0
  4  5  1  0  0  0  0
  5  6  1  0  0  0  0
  6  7  1  0  0  0  0
  7  8  2  0  0  0  0
  7  9  1  0  0  0  0
  2  9  1  0  0  0  0
M  END

> <ChembankId>
3069582

> <SMILES>
C[C@@]1(O)CCOC(=O)C1

> <InChI>
1/C6H10O3/c1-6(8)2-3-9-5(7)4-6/h8H,2-4H2,1H3/t6-/m1/s1

$$$$
2105063
  Marvin  11101114202D          

 27 30  0  0  1  0            999 V2000
    2.8728   -3.9050    0.0000 C   0  0  0  0  0  0  0  0  0  0  0  0
    2.5619   -3.1408    0.0000 C   0  0  2  0  0  0  0  0  0  0  0  0
    1.7447   -3.0280    0.0000 C   0  0  0  0  0  0  0  0  0  0  0  0
    1.2383   -3.6793    0.0000 C   0  0  0  0  0  0  0  0  0  0  0  0
    0.4211   -3.5665    0.0000 C   0  0  0  0  0  0  0  0  0  0  0  0
   -0.0853   -4.2178    0.0000 O   0  0  0  0  0  0  0  0  0  0  0  0
    0.1102   -2.8023    0.0000 O   0  0  0  0  0  0  0  0  0  0  0  0
    3.0683   -2.4895    0.0000 C   0  0  1  0  0  0  0  0  0  0  0  0
    2.8390   -1.6970    0.0000 C   0  0  0  0  0  0  0  0  0  0  0  0
    3.5218   -1.2340    0.0000 C   0  0  0  0  0  0  0  0  0  0  0  0
    4.1731   -1.7404    0.0000 C   0  0  1  0  0  0  0  0  0  0  0  0
    4.9853   -1.5952    0.0000 C   0  0  2  0  0  0  0  0  0  0  0  0
    5.2655   -0.8192    0.0000 C   0  0  0  0  0  0  0  0  0  0  0  0
    6.0777   -0.6740    0.0000 C   0  0  0  0  0  0  0  0  0  0  0  0
    6.6095   -1.3047    0.0000 C   0  0  2  0  0  0  0  0  0  0  0  0
    7.4216   -1.1595    0.0000 C   0  0  0  0  0  0  0  0  0  0  0  0
    7.9534   -1.7902    0.0000 C   0  0  2  0  0  0  0  0  0  0  0  0
    8.7655   -1.6450    0.0000 O   0  0  0  0  0  0  0  0  0  0  0  0
    7.6731   -2.5662    0.0000 C   0  0  0  0  0  0  0  0  0  0  0  0
    6.8610   -2.7114    0.0000 C   0  0  0  0  0  0  0  0  0  0  0  0
    6.3292   -2.0807    0.0000 C   0  0  1  0  0  0  0  0  0  0  0  0
    6.0489   -2.8566    0.0000 C   0  0  0  0  0  0  0  0  0  0  0  0
    5.5171   -2.2259    0.0000 C   0  0  1  0  0  0  0  0  0  0  0  0
    5.2368   -3.0018    0.0000 C   0  0  0  0  0  0  0  0  0  0  0  0
    4.4247   -3.1470    0.0000 C   0  0  0  0  0  0  0  0  0  0  0  0
    3.8928   -2.5163    0.0000 C   0  0  2  0  0  0  0  0  0  0  0  0
    3.5330   -3.2587    0.0000 C   0  0  0  0  0  0  0  0  0  0  0  0
  2  1  1  6  0  0  0
  2  3  1  0  0  0  0
  3  4  1  0  0  0  0
  4  5  1  0  0  0  0
  5  6  2  0  0  0  0
  5  7  1  0  0  0  0
  8  2  1  1  0  0  0
  8  9  1  0  0  0  0
  9 10  1  0  0  0  0
 11 10  1  1  0  0  0
 11 12  1  0  0  0  0
 12 13  1  6  0  0  0
 13 14  1  0  0  0  0
 14 15  1  0  0  0  0
 15 16  1  6  0  0  0
 16 17  1  0  0  0  0
 17 18  1  6  0  0  0
 17 19  1  0  0  0  0
 19 20  1  0  0  0  0
 20 21  1  0  0  0  0
 15 21  1  0  0  0  0
 21 22  1  1  0  0  0
 21 23  1  0  0  0  0
 12 23  1  0  0  0  0
 23 24  1  1  0  0  0
 24 25  1  0  0  0  0
 25 26  1  0  0  0  0
  8 26  1  0  0  0  0
 11 26  1  0  0  0  0
 26 27  1  1  0  0  0
M  END

> <ChembankId>
2105063

> <SMILES>
C[C@H](CCC(=O)O)[C@H]1CC[C@H]2[C@@H]3CC[C@@H]4C[C@H](O)CC[C@]4(C)[C@H]3CC[C@]12C

> <InChI>
1/C24H40O3/c1-15(4-9-22(26)27)19-7-8-20-18-6-5-16-14-17(25)10-12-23(16,2)21(18)11-13-24(19,20)3/h15-21,25H,4-14H2,1-3H3,(H,26,27)

$$$$
1088922
  Marvin  11101114202D          

 20 21  0  0  0  0            999 V2000
    2.1434   -2.0625    0.0000 C   0  0  0  0  0  0  0  0  0  0  0  0
    2.8579   -1.6500    0.0000 N   0  0  0  0  0  0  0  0  0  0  0  0
    2.8579   -0.8250    0.0000 C   0  0  0  0  0  0  0  0  0  0  0  0
    3.5724   -2.0625    0.0000 C   0  0  0  0  0  0  0  0  0  0  0  0
    4.2868   -1.6500    0.0000 C   0  0  0  0  0  0  0  0  0  0  0  0
    5.0013   -2.0625    0.0000 N   0  0  0  0  0  0  0  0  0  0  0  0
    5.7158   -1.6500    0.0000 C   0  0  0  0  0  0  0  0  0  0  0  0
    6.4302   -2.0625    0.0000 C   0  0  0  0  0  0  0  0  0  0  0  0
    7.1447   -1.6500    0.0000 C   0  0  0  0  0  0  0  0  0  0  0  0
    7.8592   -2.0625    0.0000 C   0  0  0  0  0  0  0  0  0  0  0  0
    7.8592   -2.8875    0.0000 C   0  0  0  0  0  0  0  0  0  0  0  0
    8.5737   -3.3000    0.0000 Cl  0  0  0  0  0  0  0  0  0  0  0  0
    7.1447   -3.3000    0.0000 C   0  0  0  0  0  0  0  0  0  0  0  0
    6.4302   -2.8875    0.0000 C   0  0  0  0  0  0  0  0  0  0  0  0
    5.0013   -2.8875    0.0000 C   0  0  0  0  0  0  0  0  0  0  0  0
    5.7158   -3.3000    0.0000 C   0  0  0  0  0  0  0  0  0  0  0  0
    5.7158   -4.1250    0.0000 C   0  0  0  0  0  0  0  0  0  0  0  0
    5.0013   -4.5375    0.0000 C   0  0  0  0  0  0  0  0  0  0  0  0
    4.2868   -4.1250    0.0000 C   0  0  0  0  0  0  0  0  0  0  0  0
    4.2868   -3.3000    0.0000 N   0  0  0  0  0  0  0  0  0  0  0  0
  1  2  1  0  0  0  0
  2  3  1  0  0  0  0
  2  4  1  0  0  0  0
  4  5  1  0  0  0  0
  5  6  1  0  0  0  0
  6  7  1  0  0  0  0
  7  8  1  0  0  0  0
  8  9  4  0  0  0  0
  9 10  4  0  0  0  0
 10 11  4  0  0  0  0
 11 12  1  0  0  0  0
 11 13  4  0  0  0  0
 13 14  4  0  0  0  0
  8 14  4  0  0  0  0
  6 15  1  0  0  0  0
 15 16  4  0  0  0  0
 16 17  4  0  0  0  0
 17 18  4  0  0  0  0
 18 19  4  0  0  0  0
 19 20  4  0  0  0  0
 15 20  4  0  0  0  0
M  END

> <ChembankId>
1088922

> <SMILES>
CN(C)CCN(Cc1ccc(Cl)cc1)c2ccccn2

> <InChI>
1/C16H20ClN3/c1-19(2)11-12-20(16-5-3-4-10-18-16)13-14-6-8-15(17)9-7-14/h3-10H,11-13H2,1-2H3

$$$$
3187888
  Marvin  11101114202D          

 16 19  0  0  1  0            999 V2000
    0.3963    0.5736    0.0000 O   0  0  0  0  0  0  0  0  0  0  0  0
    0.8704   -0.1015    0.0000 C   0  0  0  0  0  0  0  0  0  0  0  0
    1.7026   -0.1147    0.0000 O   0  0  0  0  0  0  0  0  0  0  0  0
    1.9879   -0.9084    0.0000 C   0  0  0  0  0  0  0  0  0  0  0  0
    2.3425   -1.5231    0.0000 C   0  0  0  0  0  0  0  0  0  0  0  0
    2.7859   -2.1200    0.0000 C   0  0  1  0  0  0  0  0  0  0  0  0
    2.0868   -2.6284    0.0000 C   0  0  0  0  0  0  0  0  0  0  0  0
    1.2967   -2.2852    0.0000 C   0  0  0  0  0  0  0  0  0  0  0  0
    1.2560   -1.4080    0.0000 C   0  0  0  0  0  0  0  0  0  0  0  0
    0.6010   -0.8866    0.0000 C   0  0  0  0  0  0  0  0  0  0  0  0
    2.8643   -0.7257    0.0000 C   0  0  1  0  0  0  0  0  0  0  0  0
    3.2400    0.0088    0.0000 C   0  0  0  0  0  0  0  0  0  0  0  0
    4.0639    0.0506    0.0000 C   0  0  0  0  0  0  0  0  0  0  0  0
    4.5121   -0.6420    0.0000 C   0  0  0  0  0  0  0  0  0  0  0  0
    4.1364   -1.3765    0.0000 C   0  0  0  0  0  0  0  0  0  0  0  0
    3.3125   -1.4183    0.0000 N   0  0  0  0  0  0  0  0  0  0  0  0
  1  2  2  0  0  0  0
  2  3  1  0  0  0  0
  3  4  1  0  0  0  0
  4  5  1  0  0  0  0
  5  6  1  0  0  0  0
  6  7  1  0  0  0  0
  7  8  2  0  0  0  0
  8  9  1  0  0  0  0
  4  9  1  0  0  0  0
  9 10  2  0  0  0  0
  2 10  1  0  0  0  0
  4 11  1  0  0  0  0
 11 12  1  0  0  0  0
 12 13  1  0  0  0  0
 13 14  1  0  0  0  0
 14 15  1  0  0  0  0
 15 16  1  0  0  0  0
  6 16  1  6  0  0  0
 11 16  1  1  0  0  0
M  END

> <ChembankId>
3187888

> <SMILES>
O=C1OC2(C[C@H]3C=CC2=C1)[C@H]4CCCCN34

> <InChI>
1/C13H15NO2/c15-12-7-9-4-5-10-8-13(9,16-12)11-3-1-2-6-14(10)11/h4-5,7,10-11H,1-3,6,8H2

$$$$
3069698
  Marvin  11101114202D          

 21 22  0  0  1  0            999 V2000
    4.2868    0.8250    0.0000 C   0  0  0  0  0  0  0  0  0  0  0  0
    5.0013    0.4125    0.0000 C   0  0  0  0  0  0  0  0  0  0  0  0
    4.5888   -0.3020    0.0000 C   0  0  0  0  0  0  0  0  0  0  0  0
    5.4138    1.1270    0.0000 C   0  0  0  0  0  0  0  0  0  0  0  0
    5.7158    0.0000    0.0000 N   0  0  0  0  0  0  0  0  0  0  0  0
    6.4302    0.4125    0.0000 C   0  0  0  0  0  0  0  0  0  0  0  0
    7.1447    0.0000    0.0000 C   0  0  1  0  0  0  0  0  0  0  0  0
    7.1447   -0.8250    0.0000 O   0  0  0  0  0  0  0  0  0  0  0  0
    7.8592    0.4125    0.0000 C   0  0  0  0  0  0  0  0  0  0  0  0
    8.5737    0.0000    0.0000 O   0  0  0  0  0  0  0  0  0  0  0  0
    9.2881    0.4125    0.0000 C   0  0  0  0  0  0  0  0  0  0  0  0
    9.2881    1.2375    0.0000 C   0  0  0  0  0  0  0  0  0  0  0  0
   10.0026    1.6500    0.0000 C   0  0  0  0  0  0  0  0  0  0  0  0
   10.7171    1.2375    0.0000 C   0  0  0  0  0  0  0  0  0  0  0  0
   10.7171    0.4125    0.0000 C   0  0  0  0  0  0  0  0  0  0  0  0
   11.4315    0.0000    0.0000 C   0  0  0  0  0  0  0  0  0  0  0  0
   12.1460    0.4125    0.0000 O   0  0  0  0  0  0  0  0  0  0  0  0
   11.4315   -0.8250    0.0000 C   0  0  0  0  0  0  0  0  0  0  0  0
   10.7171   -1.2375    0.0000 C   0  0  0  0  0  0  0  0  0  0  0  0
   10.0026   -0.8250    0.0000 C   0  0  0  0  0  0  0  0  0  0  0  0
   10.0026    0.0000    0.0000 C   0  0  0  0  0  0  0  0  0  0  0  0
  1  2  1  0  0  0  0
  2  3  1  0  0  0  0
  2  4  1  0  0  0  0
  2  5  1  0  0  0  0
  5  6  1  0  0  0  0
  6  7  1  0  0  0  0
  7  8  1  6  0  0  0
  7  9  1  0  0  0  0
  9 10  1  0  0  0  0
 10 11  1  0  0  0  0
 11 12  4  0  0  0  0
 12 13  4  0  0  0  0
 13 14  4  0  0  0  0
 14 15  4  0  0  0  0
 15 16  1  0  0  0  0
 16 17  2  0  0  0  0
 16 18  1  0  0  0  0
 18 19  1  0  0  0  0
 19 20  1  0  0  0  0
 20 21  1  0  0  0  0
 11 21  4  0  0  0  0
 15 21  4  0  0  0  0
M  END

> <ChembankId>
3069698

> <SMILES>
CC(C)(C)NC[C@@H](O)COc1cccc2C(=O)CCCc12

> <InChI>
1/C17H25NO3/c1-17(2,3)18-10-12(19)11-21-16-9-5-6-13-14(16)7-4-8-15(13)20/h5-6,9,12,18-19H,4,7-8,10-11H2,1-3H3

$$$$
3069699
  Marvin  11101114202D          

  8  8  0  0  1  0            999 V2000
    2.0198    0.8843    0.0000 C   0  0  0  0  0  0  0  0  0  0  0  0
    1.2352    0.6294    0.0000 C   0  0  2  0  0  0  0  0  0  0  0  0
    0.9803   -0.1553    0.0000 N   0  0  0  0  0  0  0  0  0  0  0  0
    0.1553   -0.1553    0.0000 C   0  0  0  0  0  0  0  0  0  0  0  0
   -0.3297   -0.8227    0.0000 O   0  0  0  0  0  0  0  0  0  0  0  0
   -0.0997    0.6294    0.0000 N   0  0  0  0  0  0  0  0  0  0  0  0
    0.5678    1.1143    0.0000 C   0  0  0  0  0  0  0  0  0  0  0  0
    0.5678    1.9393    0.0000 O   0  0  0  0  0  0  0  0  0  0  0  0
  2  1  1  6  0  0  0
  2  3  1  0  0  0  0
  3  4  1  0  0  0  0
  4  5  2  0  0  0  0
  4  6  1  0  0  0  0
  6  7  1  0  0  0  0
  2  7  1  0  0  0  0
  7  8  2  0  0  0  0
M  END

> <ChembankId>
3069699

> <SMILES>
C[C@@H]1NC(=O)NC1=O

> <InChI>
1/C4H6N2O2/c1-2-3(7)6-4(8)5-2/h2H,1H3,(H2,5,6,7,8)

$$$$
3069700
  Marvin  11101114202D          

  8  8  0  0  1  0            999 V2000
    2.0198    0.8843    0.0000 C   0  0  0  0  0  0  0  0  0  0  0  0
    1.2352    0.6294    0.0000 C   0  0  1  0  0  0  0  0  0  0  0  0
    0.9803   -0.1553    0.0000 N   0  0  0  0  0  0  0  0  0  0  0  0
    0.1553   -0.1553    0.0000 C   0  0  0  0  0  0  0  0  0  0  0  0
   -0.3297   -0.8227    0.0000 O   0  0  0  0  0  0  0  0  0  0  0  0
   -0.0997    0.6294    0.0000 N   0  0  0  0  0  0  0  0  0  0  0  0
    0.5678    1.1143    0.0000 C   0  0  0  0  0  0  0  0  0  0  0  0
    0.5678    1.9393    0.0000 O   0  0  0  0  0  0  0  0  0  0  0  0
  2  1  1  1  0  0  0
  2  3  1  0  0  0  0
  3  4  1  0  0  0  0
  4  5  2  0  0  0  0
  4  6  1  0  0  0  0
  6  7  1  0  0  0  0
  2  7  1  0  0  0  0
  7  8  2  0  0  0  0
M  END

> <ChembankId>
3069700

> <SMILES>
C[C@H]1NC(=O)NC1=O

> <InChI>
1/C4H6N2O2/c1-2-3(7)6-4(8)5-2/h2H,1H3,(H2,5,6,7,8)/t2-/m1/s1

$$$$
3187897
  Marvin  11101114202D          

 28 32  0  0  1  0            999 V2000
    3.5330   -3.2587    0.0000 C   0  0  0  0  0  0  0  0  0  0  0  0
    3.8928   -2.5163    0.0000 C   0  0  1  0  0  0  0  0  0  0  0  0
    3.0683   -2.4895    0.0000 C   0  0  2  0  0  0  0  0  0  0  0  0
    2.8390   -1.6970    0.0000 C   0  0  0  0  0  0  0  0  0  0  0  0
    3.5218   -1.2340    0.0000 C   0  0  0  0  0  0  0  0  0  0  0  0
    4.1731   -1.7404    0.0000 C   0  0  1  0  0  0  0  0  0  0  0  0
    4.3708   -0.9394    0.0000 O   0  0  0  0  0  0  0  0  0  0  0  0
    4.9853   -1.5952    0.0000 C   0  0  2  0  0  0  0  0  0  0  0  0
    5.2655   -0.8192    0.0000 C   0  0  0  0  0  0  0  0  0  0  0  0
    6.0777   -0.6740    0.0000 C   0  0  0  0  0  0  0  0  0  0  0  0
    6.6095   -1.3047    0.0000 C   0  0  2  0  0  0  0  0  0  0  0  0
    7.4216   -1.1595    0.0000 C   0  0  0  0  0  0  0  0  0  0  0  0
    7.9534   -1.7902    0.0000 C   0  0  1  0  0  0  0  0  0  0  0  0
    8.7655   -1.6450    0.0000 O   0  0  0  0  0  0  0  0  0  0  0  0
    7.6731   -2.5662    0.0000 C   0  0  0  0  0  0  0  0  0  0  0  0
    6.8610   -2.7114    0.0000 C   0  0  0  0  0  0  0  0  0  0  0  0
    6.3292   -2.0807    0.0000 C   0  0  1  0  0  0  0  0  0  0  0  0
    6.0489   -2.8566    0.0000 C   0  0  0  0  0  0  0  0  0  0  0  0
    5.5171   -2.2259    0.0000 C   0  0  1  0  0  0  0  0  0  0  0  0
    5.2368   -3.0018    0.0000 C   0  0  0  0  0  0  0  0  0  0  0  0
    4.4247   -3.1470    0.0000 C   0  0  1  0  0  0  0  0  0  0  0  0
    4.1444   -3.9229    0.0000 O   0  0  0  0  0  0  0  0  0  0  0  0
    2.5619   -3.1408    0.0000 C   0  0  0  0  0  0  0  0  0  0  0  0
    2.7912   -3.9333    0.0000 C   0  0  0  0  0  0  0  0  0  0  0  0
    2.1084   -4.3963    0.0000 C   0  0  0  0  0  0  0  0  0  0  0  0
    2.0816   -5.2209    0.0000 O   0  0  0  0  0  0  0  0  0  0  0  0
    1.4570   -3.8899    0.0000 O   0  0  0  0  0  0  0  0  0  0  0  0
    1.7373   -3.1140    0.0000 C   0  0  0  0  0  0  0  0  0  0  0  0
  2  1  1  1  0  0  0
  2  3  1  0  0  0  0
  3  4  1  0  0  0  0
  4  5  1  0  0  0  0
  5  6  1  0  0  0  0
  2  6  1  0  0  0  0
  6  7  1  1  0  0  0
  6  8  1  0  0  0  0
  8  9  1  6  0  0  0
  9 10  1  0  0  0  0
 10 11  1  0  0  0  0
 11 12  1  6  0  0  0
 12 13  1  0  0  0  0
 13 14  1  1  0  0  0
 13 15  1  0  0  0  0
 15 16  1  0  0  0  0
 16 17  1  0  0  0  0
 11 17  1  0  0  0  0
 17 18  1  1  0  0  0
 17 19  1  0  0  0  0
  8 19  1  0  0  0  0
 19 20  1  1  0  0  0
 20 21  1  0  0  0  0
  2 21  1  0  0  0  0
 21 22  1  1  0  0  0
  3 23  1  1  0  0  0
 23 24  2  0  0  0  0
 24 25  1  0  0  0  0
 25 26  2  0  0  0  0
 25 27  1  0  0  0  0
 27 28  1  0  0  0  0
 23 28  1  0  0  0  0
M  END

> <ChembankId>
3187897

> <SMILES>
C[C@]12[C@H](CC[C@]2(O)[C@@H]3CC[C@@H]4C[C@@H](O)CC[C@]4(C)[C@H]3C[C@H]1O)C5=CC(=O)OC5

> <InChI>
1/C23H34O5/c1-21-7-5-15(24)10-14(21)3-4-17-18(21)11-19(25)22(2)16(6-8-23(17,22)27)13-9-20(26)28-12-13/h9,14-19,24-25,27H,3-8,10-12H2,1-2H3

$$$$
1012530
  Marvin  11101114202D          

 14 14  0  0  0  0            999 V2000
   -2.8579   -3.3000    0.0000 C   0  0  0  0  0  0  0  0  0  0  0  0
   -2.1434   -2.8875    0.0000 C   0  0  0  0  0  0  0  0  0  0  0  0
   -1.4289   -3.3000    0.0000 C   0  0  0  0  0  0  0  0  0  0  0  0
   -0.7145   -2.8875    0.0000 C   0  0  0  0  0  0  0  0  0  0  0  0
    0.0000   -3.3000    0.0000 O   0  0  0  0  0  0  0  0  0  0  0  0
    0.7145   -2.8875    0.0000 C   0  0  0  0  0  0  0  0  0  0  0  0
    0.7145   -2.0625    0.0000 O   0  0  0  0  0  0  0  0  0  0  0  0
    1.4289   -3.3000    0.0000 C   0  0  0  0  0  0  0  0  0  0  0  0
    2.1434   -2.8875    0.0000 C   0  0  0  0  0  0  0  0  0  0  0  0
    2.8579   -3.3000    0.0000 C   0  0  0  0  0  0  0  0  0  0  0  0
    2.8579   -4.1250    0.0000 C   0  0  0  0  0  0  0  0  0  0  0  0
    3.5724   -4.5375    0.0000 O   0  0  0  0  0  0  0  0  0  0  0  0
    2.1434   -4.5375    0.0000 C   0  0  0  0  0  0  0  0  0  0  0  0
    1.4289   -4.1250    0.0000 C   0  0  0  0  0  0  0  0  0  0  0  0
  1  2  1  0  0  0  0
  2  3  1  0  0  0  0
  3  4  1  0  0  0  0
  4  5  1  0  0  0  0
  5  6  1  0  0  0  0
  6  7  2  0  0  0  0
  6  8  1  0  0  0  0
  8  9  4  0  0  0  0
  9 10  4  0  0  0  0
 10 11  4  0  0  0  0
 11 12  1  0  0  0  0
 11 13  4  0  0  0  0
 13 14  4  0  0  0  0
  8 14  4  0  0  0  0
M  END

> <ChembankId>
1012530

> <SMILES>
CCCCOC(=O)c1ccc(O)cc1

> <InChI>
1/C11H14O3/c1-2-3-8-14-11(13)9-4-6-10(12)7-5-9/h4-7,12H,2-3,8H2,1H3

$$$$
3187899
  Marvin  11101114202D          

 22 25  0  0  1  0            999 V2000
    3.5330   -3.2587    0.0000 C   0  0  0  0  0  0  0  0  0  0  0  0
    3.8928   -2.5163    0.0000 C   0  0  2  0  0  0  0  0  0  0  0  0
    4.4247   -3.1470    0.0000 C   0  0  0  0  0  0  0  0  0  0  0  0
    5.2368   -3.0018    0.0000 C   0  0  0  0  0  0  0  0  0  0  0  0
    5.7686   -3.6325    0.0000 O   0  0  0  0  0  0  0  0  0  0  0  0
    5.5171   -2.2259    0.0000 C   0  0  1  0  0  0  0  0  0  0  0  0
    4.9853   -1.5952    0.0000 C   0  0  1  0  0  0  0  0  0  0  0  0
    5.2655   -0.8192    0.0000 C   0  0  0  0  0  0  0  0  0  0  0  0
    6.0777   -0.6740    0.0000 C   0  0  0  0  0  0  0  0  0  0  0  0
    6.6095   -1.3047    0.0000 C   0  0  0  0  0  0  0  0  0  0  0  0
    7.4216   -1.1595    0.0000 C   0  0  0  0  0  0  0  0  0  0  0  0
    7.9534   -1.7902    0.0000 C   0  0  0  0  0  0  0  0  0  0  0  0
    8.7655   -1.6450    0.0000 O   0  0  0  0  0  0  0  0  0  0  0  0
    7.6731   -2.5662    0.0000 C   0  0  0  0  0  0  0  0  0  0  0  0
    6.8610   -2.7114    0.0000 C   0  0  0  0  0  0  0  0  0  0  0  0
    6.3292   -2.0807    0.0000 C   0  0  2  0  0  0  0  0  0  0  0  0
    6.0489   -2.8566    0.0000 C   0  0  0  0  0  0  0  0  0  0  0  0
    4.1731   -1.7404    0.0000 C   0  0  2  0  0  0  0  0  0  0  0  0
    3.5218   -1.2340    0.0000 C   0  0  0  0  0  0  0  0  0  0  0  0
    2.8390   -1.6970    0.0000 C   0  0  0  0  0  0  0  0  0  0  0  0
    3.0683   -2.4895    0.0000 C   0  0  0  0  0  0  0  0  0  0  0  0
    2.5619   -3.1408    0.0000 O   0  0  0  0  0  0  0  0  0  0  0  0
  2  1  1  1  0  0  0
  2  3  1  0  0  0  0
  3  4  1  0  0  0  0
  4  5  2  0  0  0  0
  6  4  1  1  0  0  0
  6  7  1  0  0  0  0
  7  8  1  6  0  0  0
  8  9  1  0  0  0  0
  9 10  1  0  0  0  0
 10 11  2  0  0  0  0
 11 12  1  0  0  0  0
 12 13  2  0  0  0  0
 12 14  1  0  0  0  0
 14 15  1  0  0  0  0
 15 16  1  0  0  0  0
  6 16  1  0  0  0  0
 10 16  1  0  0  0  0
 16 17  1  1  0  0  0
  7 18  1  0  0  0  0
  2 18  1  0  0  0  0
 18 19  1  1  0  0  0
 19 20  1  0  0  0  0
 20 21  1  0  0  0  0
  2 21  1  0  0  0  0
 21 22  2  0  0  0  0
M  END

> <ChembankId>
3187899

> <SMILES>
C[C@@]12CC(=O)[C@H]3[C@@H](CCC4=CC(=O)CC[C@]34C)[C@@H]2CCC1=O

> <InChI>
1/C19H24O3/c1-18-8-7-12(20)9-11(18)3-4-13-14-5-6-16(22)19(14,2)10-15(21)17(13)18/h9,13-14,17H,3-8,10H2,1-2H3

$$$$
1025776
  Marvin  11101114202D          

 11 11  0  0  0  0            999 V2000
    2.1434    1.2375    0.0000 N   0  0  0  0  0  0  0  0  0  0  0  0
    1.4289    0.8250    0.0000 C   0  0  0  0  0  0  0  0  0  0  0  0
    1.4289   -0.0000    0.0000 C   0  0  0  0  0  0  0  0  0  0  0  0
    0.7145   -0.4125    0.0000 C   0  0  0  0  0  0  0  0  0  0  0  0
    0.0000    0.0000    0.0000 C   0  0  0  0  0  0  0  0  0  0  0  0
    0.0000    0.8250    0.0000 C   0  0  0  0  0  0  0  0  0  0  0  0
    0.7145    1.2375    0.0000 C   0  0  0  0  0  0  0  0  0  0  0  0
    0.7145    2.0625    0.0000 S   0  0  0  0  0  0  0  0  0  0  0  0
    0.7145    2.8875    0.0000 O   0  0  0  0  0  0  0  0  0  0  0  0
    1.5395    2.0625    0.0000 O   0  0  0  0  0  0  0  0  0  0  0  0
   -0.1105    2.0625    0.0000 N   0  0  0  0  0  0  0  0  0  0  0  0
  1  2  1  0  0  0  0
  2  3  4  0  0  0  0
  3  4  4  0  0  0  0
  4  5  4  0  0  0  0
  5  6  4  0  0  0  0
  6  7  4  0  0  0  0
  2  7  4  0  0  0  0
  7  8  1  0  0  0  0
  8  9  2  0  0  0  0
  8 10  2  0  0  0  0
  8 11  1  0  0  0  0
M  END

> <ChembankId>
1025776

> <SMILES>
Nc1ccccc1S(=O)(=O)N

> <InChI>
1/C6H8N2O2S/c7-5-3-1-2-4-6(5)11(8,9)10/h1-4H,7H2,(H2,8,9,10)

$$$$
3069740
  Marvin  11101114202D          

 17 20  0  0  1  0            999 V2000
    0.8444    0.2390    0.0000 C   0  0  0  0  0  0  0  0  0  0  0  0
    1.0605   -0.5572    0.0000 C   0  0  1  0  0  0  0  0  0  0  0  0
    0.4999   -0.1173    0.0000 N   0  0  0  0  0  0  0  0  0  0  0  0
    0.6396   -0.9304    0.0000 C   0  0  1  0  0  0  0  0  0  0  0  0
    1.6113   -0.9304    0.0000 C   0  0  0  0  0  0  0  0  0  0  0  0
    2.1275   -1.3591    0.0000 C   0  0  0  0  0  0  0  0  0  0  0  0
    2.9007   -1.6467    0.0000 C   0  0  0  0  0  0  0  0  0  0  0  0
    3.5364   -1.1209    0.0000 C   0  0  0  0  0  0  0  0  0  0  0  0
    3.3989   -0.3074    0.0000 C   0  0  0  0  0  0  0  0  0  0  0  0
    2.6257   -0.0198    0.0000 C   0  0  0  0  0  0  0  0  0  0  0  0
    1.9900   -0.5456    0.0000 C   0  0  0  0  0  0  0  0  0  0  0  0
    0.7400   -1.2658    0.0000 C   0  0  0  0  0  0  0  0  0  0  0  0
    1.4635   -1.6622    0.0000 C   0  0  0  0  0  0  0  0  0  0  0  0
    1.4820   -2.4870    0.0000 C   0  0  0  0  0  0  0  0  0  0  0  0
    0.7770   -2.9154    0.0000 C   0  0  0  0  0  0  0  0  0  0  0  0
    0.0534   -2.5190    0.0000 C   0  0  0  0  0  0  0  0  0  0  0  0
    0.0349   -1.6942    0.0000 C   0  0  0  0  0  0  0  0  0  0  0  0
  2  1  1  1  0  0  0
  2  3  1  0  0  0  0
  4  3  1  1  0  0  0
  4  5  1  0  0  0  0
  5  6  1  0  0  0  0
  6  7  4  0  0  0  0
  7  8  4  0  0  0  0
  8  9  4  0  0  0  0
  9 10  4  0  0  0  0
 10 11  4  0  0  0  0
  6 11  4  0  0  0  0
  2 11  1  0  0  0  0
  2 12  1  0  0  0  0
 12 13  4  0  0  0  0
 13 14  4  0  0  0  0
 14 15  4  0  0  0  0
 15 16  4  0  0  0  0
 16 17  4  0  0  0  0
  4 17  1  0  0  0  0
 12 17  4  0  0  0  0
M  END

> <ChembankId>
3069740

> <SMILES>
C[C@]1(N[C@H]2Cc3ccccc31)c4ccccc24

> <InChI>
1/C16H15N/c1-16-13-8-4-2-6-11(13)10-15(17-16)12-7-3-5-9-14(12)16/h2-9,15,17H,10H2,1H3

$$$$
3188022
  Marvin  11101114202D          

 71 73  0  0  0  0            999 V2000
   -0.7145   -7.8375    0.0000 C   0  0  0  0  0  0  0  0  0  0  0  0
   -1.4289   -7.4250    0.0000 C   0  0  0  0  0  0  0  0  0  0  0  0
   -1.8414   -8.1395    0.0000 C   0  0  0  0  0  0  0  0  0  0  0  0
   -1.0164   -6.7105    0.0000 C   0  0  0  0  0  0  0  0  0  0  0  0
   -2.1434   -7.0125    0.0000 C   0  0  0  0  0  0  0  0  0  0  0  0
   -2.1434   -6.1875    0.0000 C   0  0  0  0  0  0  0  0  0  0  0  0
   -1.3184   -6.1875    0.0000 C   0  0  0  0  0  0  0  0  0  0  0  0
   -2.9684   -6.1875    0.0000 C   0  0  0  0  0  0  0  0  0  0  0  0
   -2.1434   -5.3625    0.0000 C   0  0  0  0  0  0  0  0  0  0  0  0
   -2.8579   -4.9500    0.0000 C   0  0  0  0  0  0  0  0  0  0  0  0
   -2.8579   -4.1250    0.0000 C   0  0  0  0  0  0  0  0  0  0  0  0
   -2.1434   -3.7125    0.0000 C   0  0  0  0  0  0  0  0  0  0  0  0
   -2.1434   -2.8875    0.0000 O   0  0  0  0  0  0  0  0  0  0  0  0
   -2.8579   -2.4750    0.0000 C   0  0  0  0  0  0  0  0  0  0  0  0
   -3.5724   -2.8875    0.0000 O   0  0  0  0  0  0  0  0  0  0  0  0
   -3.5724   -3.7125    0.0000 C   0  0  0  0  0  0  0  0  0  0  0  0
   -4.2868   -4.1250    0.0000 C   0  0  0  0  0  0  0  0  0  0  0  0
   -4.2868   -4.9500    0.0000 O   0  0  0  0  0  0  0  0  0  0  0  0
   -5.0013   -5.3625    0.0000 C   0  0  0  0  0  0  0  0  0  0  0  0
   -5.0013   -6.1875    0.0000 C   0  0  0  0  0  0  0  0  0  0  0  0
   -5.7158   -6.6000    0.0000 O   0  0  0  0  0  0  0  0  0  0  0  0
   -1.4289   -4.1250    0.0000 C   0  0  0  0  0  0  0  0  0  0  0  0
   -0.7145   -3.7125    0.0000 C   0  0  0  0  0  0  0  0  0  0  0  0
   -0.7145   -2.8875    0.0000 C   0  0  0  0  0  0  0  0  0  0  0  0
   -1.4289   -2.4750    0.0000 C   0  0  0  0  0  0  0  0  0  0  0  0
   -1.4289   -1.6500    0.0000 C   0  0  0  0  0  0  0  0  0  0  0  0
   -0.7145   -1.2375    0.0000 C   0  0  0  0  0  0  0  0  0  0  0  0
    0.0000   -1.6500    0.0000 C   0  0  0  0  0  0  0  0  0  0  0  0
    0.7145   -1.2375    0.0000 C   0  0  0  0  0  0  0  0  0  0  0  0
    0.7145   -0.4125    0.0000 C   0  0  0  0  0  0  0  0  0  0  0  0
    0.0000    0.0000    0.0000 C   0  0  0  0  0  0  0  0  0  0  0  0
    0.0000    0.8250    0.0000 C   0  0  0  0  0  0  0  0  0  0  0  0
    0.7145    1.2375    0.0000 C   0  0  0  0  0  0  0  0  0  0  0  0
    1.4289    0.8250    0.0000 C   0  0  0  0  0  0  0  0  0  0  0  0
    1.4289    0.0000    0.0000 C   0  0  0  0  0  0  0  0  0  0  0  0
    2.1434   -0.4125    0.0000 O   0  0  0  0  0  0  0  0  0  0  0  0
    2.1434   -1.2375    0.0000 C   0  0  0  0  0  0  0  0  0  0  0  0
    2.8579   -1.6500    0.0000 O   0  0  0  0  0  0  0  0  0  0  0  0
    3.5724   -1.2375    0.0000 C   0  0  0  0  0  0  0  0  0  0  0  0
    3.5724   -0.4125    0.0000 C   0  0  0  0  0  0  0  0  0  0  0  0
    4.2868    0.0000    0.0000 O   0  0  0  0  0  0  0  0  0  0  0  0
    4.2868    0.8250    0.0000 C   0  0  0  0  0  0  0  0  0  0  0  0
    5.0013    1.2375    0.0000 C   0  0  0  0  0  0  0  0  0  0  0  0
    5.7158    0.8250    0.0000 O   0  0  0  0  0  0  0  0  0  0  0  0
   -0.7145    1.2375    0.0000 C   0  0  0  0  0  0  0  0  0  0  0  0
   -1.1270    0.5230    0.0000 C   0  0  0  0  0  0  0  0  0  0  0  0
   -1.4289    1.6500    0.0000 C   0  0  0  0  0  0  0  0  0  0  0  0
   -0.3020    1.9520    0.0000 C   0  0  0  0  0  0  0  0  0  0  0  0
   -0.7145    2.6664    0.0000 C   0  0  0  0  0  0  0  0  0  0  0  0
    0.0000    3.0789    0.0000 C   0  0  0  0  0  0  0  0  0  0  0  0
   -1.4289    2.2539    0.0000 C   0  0  0  0  0  0  0  0  0  0  0  0
   -1.1270    3.3809    0.0000 C   0  0  0  0  0  0  0  0  0  0  0  0
    0.0000   -2.4750    0.0000 C   0  0  0  0  0  0  0  0  0  0  0  0
    0.7145   -2.8875    0.0000 O   0  0  0  0  0  0  0  0  0  0  0  0
    1.4289   -2.4750    0.0000 C   0  0  0  0  0  0  0  0  0  0  0  0
    2.1434   -2.8875    0.0000 O   0  0  0  0  0  0  0  0  0  0  0  0
    2.8579   -2.4750    0.0000 C   0  0  0  0  0  0  0  0  0  0  0  0
    3.5724   -2.8875    0.0000 C   0  0  0  0  0  0  0  0  0  0  0  0
    4.2868   -2.4750    0.0000 O   0  0  0  0  0  0  0  0  0  0  0  0
    5.0013   -2.8875    0.0000 C   0  0  0  0  0  0  0  0  0  0  0  0
    5.7158   -2.4750    0.0000 C   0  0  0  0  0  0  0  0  0  0  0  0
    6.4302   -2.8875    0.0000 O   0  0  0  0  0  0  0  0  0  0  0  0
   -2.1434   -1.2375    0.0000 C   0  0  0  0  0  0  0  0  0  0  0  0
   -1.7309   -0.5230    0.0000 C   0  0  0  0  0  0  0  0  0  0  0  0
   -2.5559   -1.9520    0.0000 C   0  0  0  0  0  0  0  0  0  0  0  0
   -2.8579   -0.8250    0.0000 C   0  0  0  0  0  0  0  0  0  0  0  0
   -2.8579    0.0000    0.0000 C   0  0  0  0  0  0  0  0  0  0  0  0
   -2.0329    0.0000    0.0000 C   0  0  0  0  0  0  0  0  0  0  0  0
   -3.6829    0.0000    0.0000 C   0  0  0  0  0  0  0  0  0  0  0  0
   -2.8579    0.8250    0.0000 C   0  0  0  0  0  0  0  0  0  0  0  0
   -1.4289   -4.9500    0.0000 C   0  0  0  0  0  0  0  0  0  0  0  0
  1  2  1  0  0  0  0
  2  3  1  0  0  0  0
  2  4  1  0  0  0  0
  2  5  1  0  0  0  0
  5  6  1  0  0  0  0
  6  7  1  0  0  0  0
  6  8  1  0  0  0  0
  6  9  1  0  0  0  0
  9 10  4  0  0  0  0
 10 11  4  0  0  0  0
 11 12  4  0  0  0  0
 12 13  1  0  0  0  0
 13 14  1  0  0  0  0
 14 15  1  0  0  0  0
 15 16  1  0  0  0  0
 16 17  1  0  0  0  0
 17 18  1  0  0  0  0
 18 19  1  0  0  0  0
 19 20  1  0  0  0  0
 20 21  1  0  0  0  0
 12 22  4  0  0  0  0
 22 23  1  0  0  0  0
 23 24  1  0  0  0  0
 24 25  4  0  0  0  0
 25 26  4  0  0  0  0
 26 27  4  0  0  0  0
 27 28  4  0  0  0  0
 28 29  1  0  0  0  0
 29 30  1  0  0  0  0
 30 31  4  0  0  0  0
 31 32  4  0  0  0  0
 32 33  4  0  0  0  0
 33 34  4  0  0  0  0
 34 35  4  0  0  0  0
 30 35  4  0  0  0  0
 35 36  1  0  0  0  0
 36 37  1  0  0  0  0
 37 38  1  0  0  0  0
 38 39  1  0  0  0  0
 39 40  1  0  0  0  0
 40 41  1  0  0  0  0
 41 42  1  0  0  0  0
 42 43  1  0  0  0  0
 43 44  1  0  0  0  0
 32 45  1  0  0  0  0
 45 46  1  0  0  0  0
 45 47  1  0  0  0  0
 45 48  1  0  0  0  0
 48 49  1  0  0  0  0
 49 50  1  0  0  0  0
 49 51  1  0  0  0  0
 49 52  1  0  0  0  0
 28 53  4  0  0  0  0
 24 53  4  0  0  0  0
 53 54  1  0  0  0  0
 54 55  1  0  0  0  0
 55 56  1  0  0  0  0
 56 57  1  0  0  0  0
 57 58  1  0  0  0  0
 58 59  1  0  0  0  0
 59 60  1  0  0  0  0
 60 61  1  0  0  0  0
 61 62  1  0  0  0  0
 26 63  1  0  0  0  0
 63 64  1  0  0  0  0
 63 65  1  0  0  0  0
 63 66  1  0  0  0  0
 66 67  1  0  0  0  0
 67 68  1  0  0  0  0
 67 69  1  0  0  0  0
 67 70  1  0  0  0  0
 22 71  4  0  0  0  0
  9 71  4  0  0  0  0
M  END

> <ChembankId>
3188022

> <SMILES>
CC(C)(C)CC(C)(C)c1ccc(OCOCCOCCO)c(Cc2cc(cc(Cc3cc(ccc3OCOCCOCCO)C(C)(C)CC(C)(C)C)c2OCOCCOCCO)C(C)(C)CC(C)(C)C)c1

> <InChI>
1/C59H96O12/c1-54(2,3)38-57(10,11)48-16-18-51(69-41-66-29-26-63-23-20-60)44(34-48)32-46-36-50(59(14,15)40-56(7,8)9)37-47(53(46)71-43-68-31-28-65-25-22-62)33-45-35-49(58(12,13)39-55(4,5)6)17-19-52(45)70-42-67-30-27-64-24-21-61/h16-19,34-37,60-62H,20-33,38-43H2,1-15H3

$$$$
3069742
  Marvin  11101114202D          

 21 21  0  0  1  0            999 V2000
   -2.6961    1.0461    0.0000 C   0  0  0  0  0  0  0  0  0  0  0  0
   -1.8711    1.0461    0.0000 S   0  0  0  0  0  0  0  0  0  0  0  0
   -1.8711    0.2211    0.0000 O   0  0  0  0  0  0  0  0  0  0  0  0
   -1.8711    1.8711    0.0000 O   0  0  0  0  0  0  0  0  0  0  0  0
   -1.0461    1.0461    0.0000 C   0  0  0  0  0  0  0  0  0  0  0  0
   -0.6336    1.7605    0.0000 C   0  0  0  0  0  0  0  0  0  0  0  0
    0.1914    1.7605    0.0000 C   0  0  0  0  0  0  0  0  0  0  0  0
    0.6039    1.0461    0.0000 C   0  0  0  0  0  0  0  0  0  0  0  0
    0.1914    0.3316    0.0000 C   0  0  0  0  0  0  0  0  0  0  0  0
   -0.6336    0.3316    0.0000 C   0  0  0  0  0  0  0  0  0  0  0  0
    1.4289    1.0461    0.0000 C   0  0  1  0  0  0  0  0  0  0  0  0
    1.8414    0.3316    0.0000 O   0  0  0  0  0  0  0  0  0  0  0  0
    1.8414    1.7605    0.0000 C   0  0  1  0  0  0  0  0  0  0  0  0
    1.4289    2.4750    0.0000 C   0  0  0  0  0  0  0  0  0  0  0  0
    1.8414    3.1895    0.0000 F   0  0  0  0  0  0  0  0  0  0  0  0
    2.6664    1.7605    0.0000 N   0  0  0  0  0  0  0  0  0  0  0  0
    3.0789    2.4750    0.0000 C   0  0  0  0  0  0  0  0  0  0  0  0
    2.6664    3.1895    0.0000 O   0  0  0  0  0  0  0  0  0  0  0  0
    3.9039    2.4750    0.0000 C   0  0  0  0  0  0  0  0  0  0  0  0
    4.3164    3.1895    0.0000 Cl  0  0  0  0  0  0  0  0  0  0  0  0
    4.3164    1.7605    0.0000 Cl  0  0  0  0  0  0  0  0  0  0  0  0
  1  2  1  0  0  0  0
  2  3  2  0  0  0  0
  2  4  2  0  0  0  0
  2  5  1  0  0  0  0
  5  6  4  0  0  0  0
  6  7  4  0  0  0  0
  7  8  4  0  0  0  0
  8  9  4  0  0  0  0
  9 10  4  0  0  0  0
  5 10  4  0  0  0  0
  8 11  1  0  0  0  0
 11 12  1  6  0  0  0
 11 13  1  0  0  0  0
 13 14  1  0  0  0  0
 14 15  1  0  0  0  0
 13 16  1  1  0  0  0
 16 17  1  0  0  0  0
 17 18  2  0  0  0  0
 17 19  1  0  0  0  0
 19 20  1  0  0  0  0
 19 21  1  0  0  0  0
M  END

> <ChembankId>
3069742

> <SMILES>
CS(=O)(=O)c1ccc(cc1)[C@@H](O)[C@@H](CF)NC(=O)C(Cl)Cl

> <InChI>
1/C12H14Cl2FNO4S/c1-21(19,20)8-4-2-7(3-5-8)10(17)9(6-15)16-12(18)11(13)14/h2-5,9-11,17H,6H2,1H3,(H,16,18)

$$$$
1081653
  Marvin  11101114202D          

 19 20  0  0  0  0            999 V2000
    0.7145   -1.2375    0.0000 Cl  0  0  0  0  0  0  0  0  0  0  0  0
    0.7145   -0.4125    0.0000 C   0  0  0  0  0  0  0  0  0  0  0  0
    0.0000    0.0000    0.0000 C   0  0  0  0  0  0  0  0  0  0  0  0
    0.0000    0.8250    0.0000 C   0  0  0  0  0  0  0  0  0  0  0  0
    0.7145    1.2375    0.0000 C   0  0  0  0  0  0  0  0  0  0  0  0
    0.7145    2.0625    0.0000 C   0  0  0  0  0  0  0  0  0  0  0  0
   -0.0000    2.4750    0.0000 C   0  0  0  0  0  0  0  0  0  0  0  0
   -0.0000    3.3000    0.0000 N   0  0  0  0  0  0  0  0  0  0  0  0
   -0.6674    3.7849    0.0000 C   0  0  0  0  0  0  0  0  0  0  0  0
   -0.4125    4.5695    0.0000 C   0  0  0  0  0  0  0  0  0  0  0  0
    0.4125    4.5695    0.0000 N   0  0  0  0  0  0  0  0  0  0  0  0
    0.6674    3.7849    0.0000 C   0  0  0  0  0  0  0  0  0  0  0  0
    1.4289    2.4750    0.0000 O   0  0  0  0  0  0  0  0  0  0  0  0
    2.1434    2.0625    0.0000 C   0  0  0  0  0  0  0  0  0  0  0  0
    2.8579    2.4750    0.0000 C   0  0  0  0  0  0  0  0  0  0  0  0
    3.5724    2.0625    0.0000 C   0  0  0  0  0  0  0  0  0  0  0  0
    1.4289    0.8250    0.0000 C   0  0  0  0  0  0  0  0  0  0  0  0
    2.1434    1.2375    0.0000 Cl  0  0  0  0  0  0  0  0  0  0  0  0
    1.4289    0.0000    0.0000 C   0  0  0  0  0  0  0  0  0  0  0  0
  1  2  1  0  0  0  0
  2  3  4  0  0  0  0
  3  4  4  0  0  0  0
  4  5  4  0  0  0  0
  5  6  1  0  0  0  0
  6  7  1  0  0  0  0
  7  8  1  0  0  0  0
  8  9  4  0  0  0  0
  9 10  4  0  0  0  0
 10 11  4  0  0  0  0
 11 12  4  0  0  0  0
  8 12  4  0  0  0  0
  6 13  1  0  0  0  0
 13 14  1  0  0  0  0
 14 15  1  0  0  0  0
 15 16  2  0  0  0  0
  5 17  4  0  0  0  0
 17 18  1  0  0  0  0
 17 19  4  0  0  0  0
  2 19  4  0  0  0  0
M  END

> <ChembankId>
1081653

> <SMILES>
Clc1ccc(C(Cn2ccnc2)OCC=C)c(Cl)c1

> <InChI>
1/C14H14Cl2N2O/c1-2-7-19-14(9-18-6-5-17-10-18)12-4-3-11(15)8-13(12)16/h2-6,8,10,14H,1,7,9H2

$$$$
3188025
  Marvin  11101114202D          

 11 12  0  0  0  0            999 V2000
    0.0773    0.5912    0.0000 C   0  0  0  0  0  0  0  0  0  0  0  0
    0.4999   -0.1173    0.0000 N   0  0  0  0  0  0  0  0  0  0  0  0
    1.0605   -0.5572    0.0000 C   0  0  0  0  0  0  0  0  0  0  0  0
    0.7400   -1.2658    0.0000 C   0  0  0  0  0  0  0  0  0  0  0  0
    0.1197   -1.6427    0.0000 C   0  0  0  0  0  0  0  0  0  0  0  0
   -0.4878   -2.2009    0.0000 O   0  0  0  0  0  0  0  0  0  0  0  0
    0.6396   -0.9304    0.0000 C   0  0  0  0  0  0  0  0  0  0  0  0
    1.6113   -0.9304    0.0000 C   0  0  0  0  0  0  0  0  0  0  0  0
    2.1275   -1.3591    0.0000 C   0  0  0  0  0  0  0  0  0  0  0  0
    2.5393   -2.0740    0.0000 O   0  0  0  0  0  0  0  0  0  0  0  0
    1.9893   -0.5417    0.0000 C   0  0  0  0  0  0  0  0  0  0  0  0
  1  2  1  0  0  0  0
  2  3  1  0  0  0  0
  3  4  1  0  0  0  0
  4  5  1  0  0  0  0
  5  6  1  0  0  0  0
  5  7  1  0  0  0  0
  2  7  1  0  0  0  0
  7  8  1  0  0  0  0
  8  9  1  0  0  0  0
  9 10  2  0  0  0  0
  9 11  1  0  0  0  0
  3 11  1  0  0  0  0
M  END

> <ChembankId>
3188025

> <SMILES>
CN1C2CC(O)C1CC(=O)C2

> <InChI>
1/C8H13NO2/c1-9-5-2-6(10)4-7(9)8(11)3-5/h5,7-8,11H,2-4H2,1H3/t5-,7+,8+/m1/s1

$$$$
3188027
  Marvin  11101114202D          

 24 25  0  0  0  0            999 V2000
   -4.1458   -2.3137    0.0000 C   0  0  0  0  0  0  0  0  0  0  0  0
   -3.4313   -2.7262    0.0000 C   0  0  0  0  0  0  0  0  0  0  0  0
   -2.7168   -2.3137    0.0000 N   0  0  0  0  0  0  0  0  0  0  0  0
   -2.7168   -1.4887    0.0000 C   0  0  0  0  0  0  0  0  0  0  0  0
   -2.0023   -1.0762    0.0000 C   0  0  0  0  0  0  0  0  0  0  0  0
   -2.0023   -2.7262    0.0000 C   0  0  0  0  0  0  0  0  0  0  0  0
   -1.2879   -2.3137    0.0000 C   0  0  0  0  0  0  0  0  0  0  0  0
   -0.5734   -2.7262    0.0000 O   0  0  0  0  0  0  0  0  0  0  0  0
    0.1411   -2.3137    0.0000 C   0  0  0  0  0  0  0  0  0  0  0  0
    0.1411   -1.4887    0.0000 O   0  0  0  0  0  0  0  0  0  0  0  0
    0.8555   -2.7262    0.0000 C   0  0  0  0  0  0  0  0  0  0  0  0
    1.6402   -2.9811    0.0000 C   0  0  0  0  0  0  0  0  0  0  0  0
    1.6402   -3.8061    0.0000 C   0  0  0  0  0  0  0  0  0  0  0  0
    0.8555   -4.0610    0.0000 C   0  0  0  0  0  0  0  0  0  0  0  0
    0.3706   -3.3936    0.0000 C   0  0  0  0  0  0  0  0  0  0  0  0
    1.1911   -1.9725    0.0000 C   0  0  0  0  0  0  0  0  0  0  0  0
    0.7062   -1.3051    0.0000 C   0  0  0  0  0  0  0  0  0  0  0  0
    1.0417   -0.5514    0.0000 C   0  0  0  0  0  0  0  0  0  0  0  0
    1.8622   -0.4651    0.0000 C   0  0  0  0  0  0  0  0  0  0  0  0
    2.3471   -1.1326    0.0000 C   0  0  0  0  0  0  0  0  0  0  0  0
    2.0116   -1.8863    0.0000 C   0  0  0  0  0  0  0  0  0  0  0  0
    2.1978    0.2885    0.0000 N   0  3  0  0  0  0  0  0  0  0  0  0
    3.0182    0.3748    0.0000 O   0  0  0  0  0  0  0  0  0  0  0  0
    1.7128    0.9560    0.0000 O   0  5  0  0  0  0  0  0  0  0  0  0
  1  2  1  0  0  0  0
  2  3  1  0  0  0  0
  3  4  1  0  0  0  0
  4  5  1  0  0  0  0
  3  6  1  0  0  0  0
  6  7  1  0  0  0  0
  7  8  1  0  0  0  0
  8  9  1  0  0  0  0
  9 10  2  0  0  0  0
  9 11  1  0  0  0  0
 11 12  1  0  0  0  0
 12 13  1  0  0  0  0
 13 14  1  0  0  0  0
 14 15  1  0  0  0  0
 11 15  1  0  0  0  0
 11 16  1  0  0  0  0
 16 17  4  0  0  0  0
 17 18  4  0  0  0  0
 18 19  4  0  0  0  0
 19 20  4  0  0  0  0
 20 21  4  0  0  0  0
 16 21  4  0  0  0  0
 19 22  1  0  0  0  0
 22 23  2  0  0  0  0
 22 24  1  0  0  0  0
M  CHG  2  22   1  24  -1
M  END

> <ChembankId>
3188027

> <SMILES>
CCN(CC)CCOC(=O)C1(CCCC1)c2ccc(cc2)[N+](=O)[O-]

> <InChI>
1/C18H26N2O4/c1-3-19(4-2)13-14-24-17(21)18(11-5-6-12-18)15-7-9-16(10-8-15)20(22)23/h7-10H,3-6,11-14H2,1-2H3

$$$$
3723
  Marvin  11101114202D          

 10  9  0  0  0  0            999 V2000
    1.0461    1.4289    0.0000 C   0  0  0  0  0  0  0  0  0  0  0  0
    1.7605    1.8414    0.0000 N   0  0  0  0  0  0  0  0  0  0  0  0
    1.7605    2.6664    0.0000 C   0  0  0  0  0  0  0  0  0  0  0  0
    2.4750    1.4289    0.0000 C   0  0  0  0  0  0  0  0  0  0  0  0
    3.1895    1.8414    0.0000 C   0  0  0  0  0  0  0  0  0  0  0  0
    3.9039    1.4289    0.0000 C   0  0  0  0  0  0  0  0  0  0  0  0
    4.6184    1.8414    0.0000 S   0  0  0  0  0  0  0  0  0  0  0  0
    5.3329    1.4289    0.0000 C   0  0  0  0  0  0  0  0  0  0  0  0
    6.0474    1.8414    0.0000 N   0  0  0  0  0  0  0  0  0  0  0  0
    5.3329    0.6039    0.0000 N   0  0  0  0  0  0  0  0  0  0  0  0
  1  2  1  0  0  0  0
  2  3  1  0  0  0  0
  2  4  1  0  0  0  0
  4  5  1  0  0  0  0
  5  6  1  0  0  0  0
  6  7  1  0  0  0  0
  7  8  1  0  0  0  0
  8  9  2  0  0  0  0
  8 10  1  0  0  0  0
M  END

> <ChembankId>
3723

> <SMILES>
CN(C)CCCSC(=N)N

> <InChI>
1/C6H15N3S/c1-9(2)4-3-5-10-6(7)8/h3-5H2,1-2H3,(H3,7,8)

$$$$
3069774
  Marvin  11101114202D          

 29 33  0  0  1  0            999 V2000
    0.9383   -2.9652    0.0000 C   0  0  0  0  0  0  0  0  0  0  0  0
    1.7489   -2.8115    0.0000 O   0  0  0  0  0  0  0  0  0  0  0  0
    2.2873   -3.4366    0.0000 C   0  0  1  0  0  0  0  0  0  0  0  0
    2.0151   -4.2154    0.0000 C   0  0  2  0  0  0  0  0  0  0  0  0
    1.2046   -4.3692    0.0000 O   0  0  0  0  0  0  0  0  0  0  0  0
    2.5535   -4.8405    0.0000 C   0  0  0  0  0  0  0  0  0  0  0  0
    3.3641   -4.6868    0.0000 C   0  0  2  0  0  0  0  0  0  0  0  0
    3.9025   -5.3119    0.0000 C   0  0  0  0  0  0  0  0  0  0  0  0
    4.7131   -5.1582    0.0000 N   0  0  0  0  0  0  0  0  0  0  0  0
    5.2515   -5.7833    0.0000 C   0  0  0  0  0  0  0  0  0  0  0  0
    6.0620   -5.6295    0.0000 C   0  0  0  0  0  0  0  0  0  0  0  0
    6.3342   -4.8507    0.0000 C   0  0  0  0  0  0  0  0  0  0  0  0
    5.7957   -4.2256    0.0000 C   0  0  0  0  0  0  0  0  0  0  0  0
    6.2239   -3.5204    0.0000 N   0  0  0  0  0  0  0  0  0  0  0  0
    7.0269   -3.7096    0.0000 C   0  0  0  0  0  0  0  0  0  0  0  0
    7.7048   -3.2395    0.0000 C   0  0  0  0  0  0  0  0  0  0  0  0
    8.4509   -3.5916    0.0000 C   0  0  0  0  0  0  0  0  0  0  0  0
    9.1289   -3.1215    0.0000 O   0  0  0  0  0  0  0  0  0  0  0  0
    9.0607   -2.2993    0.0000 C   0  0  0  0  0  0  0  0  0  0  0  0
    8.5191   -4.4138    0.0000 C   0  0  0  0  0  0  0  0  0  0  0  0
    7.8411   -4.8839    0.0000 C   0  0  0  0  0  0  0  0  0  0  0  0
    7.0950   -4.5318    0.0000 C   0  0  0  0  0  0  0  0  0  0  0  0
    4.9852   -4.3793    0.0000 C   0  0  1  0  0  0  0  0  0  0  0  0
    4.4468   -3.7542    0.0000 C   0  0  0  0  0  0  0  0  0  0  0  0
    3.6362   -3.9080    0.0000 C   0  0  2  0  0  0  0  0  0  0  0  0
    3.0978   -3.2829    0.0000 C   0  0  2  0  0  0  0  0  0  0  0  0
    3.3700   -2.5041    0.0000 C   0  0  0  0  0  0  0  0  0  0  0  0
    2.8316   -1.8790    0.0000 O   0  0  0  0  0  0  0  0  0  0  0  0
    4.1805   -2.3503    0.0000 O   0  0  0  0  0  0  0  0  0  0  0  0
  1  2  1  0  0  0  0
  3  2  1  6  0  0  0
  3  4  1  0  0  0  0
  4  5  1  1  0  0  0
  4  6  1  0  0  0  0
  7  6  1  1  0  0  0
  7  8  1  0  0  0  0
  8  9  1  0  0  0  0
  9 10  1  0  0  0  0
 10 11  1  0  0  0  0
 11 12  1  0  0  0  0
 12 13  4  0  0  0  0
 13 14  4  0  0  0  0
 14 15  4  0  0  0  0
 15 16  4  0  0  0  0
 16 17  4  0  0  0  0
 17 18  1  0  0  0  0
 18 19  1  0  0  0  0
 17 20  4  0  0  0  0
 20 21  4  0  0  0  0
 21 22  4  0  0  0  0
 12 22  4  0  0  0  0
 15 22  4  0  0  0  0
 13 23  1  0  0  0  0
  9 23  1  0  0  0  0
 23 24  1  6  0  0  0
 25 24  1  1  0  0  0
  7 25  1  0  0  0  0
 25 26  1  0  0  0  0
  3 26  1  0  0  0  0
 26 27  1  1  0  0  0
 27 28  2  0  0  0  0
 27 29  1  0  0  0  0
M  STY  1   1 DAT
M  SAL   1  1  14
M  SDT   1 MRV_IMPLICIT_H                                        
M  SDD   1     0.0000    0.0000    DR    ALL  0       0  
M  SED   1 IMPL_H1
M  END

> <ChembankId>
3069774

> <SMILES>
CO[C@H]1[C@H](O)C[C@@H]2CN3CCc4c([nH]c5cc(OC)ccc45)[C@H]3C[C@@H]2[C@@H]1C(=O)O

> <InChI>
1/C22H28N2O5/c1-28-12-3-4-13-14-5-6-24-10-11-7-18(25)21(29-2)19(22(26)27)15(11)9-17(24)20(14)23-16(13)8-12/h3-4,8,11,15,17-19,21,23,25H,5-7,9-10H2,1-2H3,(H,26,27)

$$$$
3069775
  Marvin  11101114202D          

 30 33  0  0  1  0            999 V2000
    8.2924   -0.1891    0.0000 C   0  0  0  0  0  0  0  0  0  0  0  0
    7.4674   -0.1891    0.0000 C   0  0  0  0  0  0  0  0  0  0  0  0
    7.0549   -0.9035    0.0000 C   0  0  2  0  0  0  0  0  0  0  0  0
    6.2299   -0.9035    0.0000 C   0  0  0  0  0  0  0  0  0  0  0  0
    5.8174   -1.6180    0.0000 C   0  0  0  0  0  0  0  0  0  0  0  0
    4.9924   -1.6180    0.0000 C   0  0  1  0  0  0  0  0  0  0  0  0
    4.5799   -2.3325    0.0000 C   0  0  0  0  0  0  0  0  0  0  0  0
    4.5799   -0.9035    0.0000 C   0  0  1  0  0  0  0  0  0  0  0  0
    3.7594   -0.8173    0.0000 C   0  0  0  0  0  0  0  0  0  0  0  0
    3.5879   -0.0103    0.0000 C   0  0  0  0  0  0  0  0  0  0  0  0
    4.3024    0.4022    0.0000 C   0  0  1  0  0  0  0  0  0  0  0  0
    4.4739    1.2091    0.0000 C   0  0  2  0  0  0  0  0  0  0  0  0
    3.8608    1.7612    0.0000 C   0  0  0  0  0  0  0  0  0  0  0  0
    4.0323    2.5681    0.0000 C   0  0  0  0  0  0  0  0  0  0  0  0
    4.8170    2.8231    0.0000 C   0  0  0  0  0  0  0  0  0  0  0  0
    4.9885    3.6301    0.0000 C   0  0  0  0  0  0  0  0  0  0  0  0
    5.7731    3.8850    0.0000 C   0  0  1  0  0  0  0  0  0  0  0  0
    5.9446    4.6920    0.0000 O   0  0  0  0  0  0  0  0  0  0  0  0
    6.3862    3.3330    0.0000 C   0  0  0  0  0  0  0  0  0  0  0  0
    6.2147    2.5260    0.0000 C   0  0  0  0  0  0  0  0  0  0  0  0
    5.4301    2.2711    0.0000 C   0  0  1  0  0  0  0  0  0  0  0  0
    6.0432    1.7190    0.0000 C   0  0  0  0  0  0  0  0  0  0  0  0
    5.2585    1.4641    0.0000 C   0  0  1  0  0  0  0  0  0  0  0  0
    5.8716    0.9121    0.0000 C   0  0  0  0  0  0  0  0  0  0  0  0
    5.7001    0.1051    0.0000 C   0  0  0  0  0  0  0  0  0  0  0  0
    4.9155   -0.1499    0.0000 C   0  0  2  0  0  0  0  0  0  0  0  0
    5.4675   -0.7630    0.0000 C   0  0  0  0  0  0  0  0  0  0  0  0
    7.4674   -1.6180    0.0000 C   0  0  0  0  0  0  0  0  0  0  0  0
    8.2924   -1.6180    0.0000 C   0  0  0  0  0  0  0  0  0  0  0  0
    7.0549   -2.3325    0.0000 C   0  0  0  0  0  0  0  0  0  0  0  0
  1  2  1  0  0  0  0
  2  3  1  0  0  0  0
  3  4  1  0  0  0  0
  4  5  1  0  0  0  0
  5  6  1  0  0  0  0
  6  7  1  1  0  0  0
  8  6  1  1  0  0  0
  8  9  1  0  0  0  0
  9 10  1  0  0  0  0
 11 10  1  1  0  0  0
 11 12  1  0  0  0  0
 12 13  1  6  0  0  0
 13 14  1  0  0  0  0
 14 15  2  0  0  0  0
 15 16  1  0  0  0  0
 16 17  1  0  0  0  0
 17 18  1  1  0  0  0
 17 19  1  0  0  0  0
 19 20  1  0  0  0  0
 20 21  1  0  0  0  0
 15 21  1  0  0  0  0
 21 22  1  1  0  0  0
 21 23  1  0  0  0  0
 12 23  1  0  0  0  0
 23 24  1  1  0  0  0
 24 25  1  0  0  0  0
 25 26  1  0  0  0  0
  8 26  1  0  0  0  0
 11 26  1  0  0  0  0
 26 27  1  1  0  0  0
  3 28  1  1  0  0  0
 28 29  1  0  0  0  0
 28 30  1  0  0  0  0
M  END

> <ChembankId>
3069775

> <SMILES>
CC[C@H](CC[C@@H](C)[C@H]1CC[C@H]2[C@@H]3CC=C4C[C@@H](O)CC[C@]4(C)[C@H]3CC[C@]12C)C(C)C

> <InChI>
1/C29H50O/c1-7-21(19(2)3)9-8-20(4)25-12-13-26-24-11-10-22-18-23(30)14-16-28(22,5)27(24)15-17-29(25,26)6/h10,19-21,23-27,30H,7-9,11-18H2,1-6H3

$$$$
1327636
  Marvin  11101114202D          

 37 40  0  0  0  0            999 V2000
   -2.1434   -0.4125    0.0000 C   0  0  0  0  0  0  0  0  0  0  0  0
   -1.4289    0.0000    0.0000 O   0  0  0  0  0  0  0  0  0  0  0  0
   -0.7145   -0.4125    0.0000 C   0  0  0  0  0  0  0  0  0  0  0  0
   -0.7145   -1.2375    0.0000 C   0  0  0  0  0  0  0  0  0  0  0  0
    0.0000   -1.6500    0.0000 C   0  0  0  0  0  0  0  0  0  0  0  0
    0.7145   -1.2375    0.0000 C   0  0  0  0  0  0  0  0  0  0  0  0
    0.7145   -0.4125    0.0000 C   0  0  0  0  0  0  0  0  0  0  0  0
    0.0000   -0.0000    0.0000 C   0  0  0  0  0  0  0  0  0  0  0  0
    1.4289   -0.0000    0.0000 C   0  0  0  0  0  0  0  0  0  0  0  0
    1.4289    0.8250    0.0000 O   0  0  0  0  0  0  0  0  0  0  0  0
    2.1434   -0.4125    0.0000 N   0  0  0  0  0  0  0  0  0  0  0  0
    2.8579   -0.0000    0.0000 C   0  0  0  0  0  0  0  0  0  0  0  0
    2.8579    0.8250    0.0000 C   0  0  0  0  0  0  0  0  0  0  0  0
    3.5724    1.2375    0.0000 C   0  0  0  0  0  0  0  0  0  0  0  0
    3.5724    2.0625    0.0000 C   0  0  0  0  0  0  0  0  0  0  0  0
    4.2868    2.4750    0.0000 C   0  0  0  0  0  0  0  0  0  0  0  0
    5.0013    2.0625    0.0000 C   0  0  0  0  0  0  0  0  0  0  0  0
    5.0013    1.2375    0.0000 C   0  0  0  0  0  0  0  0  0  0  0  0
    4.2868    0.8250    0.0000 C   0  0  0  0  0  0  0  0  0  0  0  0
    5.7158    2.4750    0.0000 S   0  0  0  0  0  0  0  0  0  0  0  0
    6.1283    1.7605    0.0000 O   0  0  0  0  0  0  0  0  0  0  0  0
    5.3033    3.1895    0.0000 O   0  0  0  0  0  0  0  0  0  0  0  0
    6.4302    2.8875    0.0000 N   0  0  0  0  0  0  0  0  0  0  0  0
    7.1447    2.4750    0.0000 C   0  0  0  0  0  0  0  0  0  0  0  0
    7.1447    1.6500    0.0000 O   0  0  0  0  0  0  0  0  0  0  0  0
    7.8592    2.8875    0.0000 N   0  0  0  0  0  0  0  0  0  0  0  0
    8.5737    2.4750    0.0000 C   0  0  0  0  0  0  0  0  0  0  0  0
    9.2881    2.8875    0.0000 C   0  0  0  0  0  0  0  0  0  0  0  0
   10.0026    2.4750    0.0000 C   0  0  0  0  0  0  0  0  0  0  0  0
   10.0026    1.6500    0.0000 C   0  0  0  0  0  0  0  0  0  0  0  0
    9.2881    1.2375    0.0000 C   0  0  0  0  0  0  0  0  0  0  0  0
    8.5737    1.6500    0.0000 C   0  0  0  0  0  0  0  0  0  0  0  0
    2.1434   -1.2375    0.0000 C   0  0  0  0  0  0  0  0  0  0  0  0
    2.8579   -1.6500    0.0000 O   0  0  0  0  0  0  0  0  0  0  0  0
    1.4289   -1.6500    0.0000 C   0  0  0  0  0  0  0  0  0  0  0  0
    1.8163   -2.3784    0.0000 C   0  0  0  0  0  0  0  0  0  0  0  0
    1.0416   -2.3784    0.0000 C   0  0  0  0  0  0  0  0  0  0  0  0
  1  2  1  0  0  0  0
  2  3  1  0  0  0  0
  3  4  4  0  0  0  0
  4  5  4  0  0  0  0
  5  6  4  0  0  0  0
  6  7  4  0  0  0  0
  7  8  4  0  0  0  0
  3  8  4  0  0  0  0
  7  9  1  0  0  0  0
  9 10  2  0  0  0  0
  9 11  1  0  0  0  0
 11 12  1  0  0  0  0
 12 13  1  0  0  0  0
 13 14  1  0  0  0  0
 14 15  4  0  0  0  0
 15 16  4  0  0  0  0
 16 17  4  0  0  0  0
 17 18  4  0  0  0  0
 18 19  4  0  0  0  0
 14 19  4  0  0  0  0
 17 20  1  0  0  0  0
 20 21  2  0  0  0  0
 20 22  2  0  0  0  0
 20 23  1  0  0  0  0
 23 24  1  0  0  0  0
 24 25  2  0  0  0  0
 24 26  1  0  0  0  0
 26 27  1  0  0  0  0
 27 28  1  0  0  0  0
 28 29  1  0  0  0  0
 29 30  1  0  0  0  0
 30 31  1  0  0  0  0
 31 32  1  0  0  0  0
 27 32  1  0  0  0  0
 11 33  1  0  0  0  0
 33 34  2  0  0  0  0
 33 35  1  0  0  0  0
  6 35  1  0  0  0  0
 35 36  1  0  0  0  0
 35 37  1  0  0  0  0
M  END

> <ChembankId>
1327636

> <SMILES>
COc1ccc2c(c1)C(=O)N(CCc3ccc(cc3)S(=O)(=O)NC(=O)NC4CCCCC4)C(=O)C2(C)C

> <InChI>
1/C27H33N3O6S/c1-27(2)23-14-11-20(36-3)17-22(23)24(31)30(25(27)32)16-15-18-9-12-21(13-10-18)37(34,35)29-26(33)28-19-7-5-4-6-8-19/h9-14,17,19H,4-8,15-16H2,1-3H3,(H2,28,29,33)

$$$$
1057366
  Marvin  11101114202D          

 23 25  0  0  0  0            999 V2000
   -2.1434   -2.0625    0.0000 N   0  0  0  0  0  0  0  0  0  0  0  0
   -1.4289   -1.6500    0.0000 S   0  0  0  0  0  0  0  0  0  0  0  0
   -1.0164   -2.3645    0.0000 O   0  0  0  0  0  0  0  0  0  0  0  0
   -1.8414   -0.9355    0.0000 O   0  0  0  0  0  0  0  0  0  0  0  0
   -0.7145   -1.2375    0.0000 C   0  0  0  0  0  0  0  0  0  0  0  0
    0.0000   -1.6500    0.0000 C   0  0  0  0  0  0  0  0  0  0  0  0
    0.7145   -1.2375    0.0000 C   0  0  0  0  0  0  0  0  0  0  0  0
    0.7145   -0.4125    0.0000 C   0  0  0  0  0  0  0  0  0  0  0  0
    1.4289   -0.0000    0.0000 N   0  0  0  0  0  0  0  0  0  0  0  0
    2.1434   -0.4125    0.0000 C   0  0  0  0  0  0  0  0  0  0  0  0
    2.8579   -0.0000    0.0000 C   0  0  0  0  0  0  0  0  0  0  0  0
    3.5724   -0.4125    0.0000 C   0  0  0  0  0  0  0  0  0  0  0  0
    4.3260   -0.0769    0.0000 C   0  0  0  0  0  0  0  0  0  0  0  0
    4.8781   -0.6900    0.0000 C   0  0  0  0  0  0  0  0  0  0  0  0
    4.4656   -1.4045    0.0000 C   0  0  0  0  0  0  0  0  0  0  0  0
    3.6586   -1.2330    0.0000 C   0  0  0  0  0  0  0  0  0  0  0  0
    2.1434   -1.2375    0.0000 N   0  0  0  0  0  0  0  0  0  0  0  0
    1.4289   -1.6500    0.0000 S   0  0  0  0  0  0  0  0  0  0  0  0
    1.8163   -2.3784    0.0000 O   0  0  0  0  0  0  0  0  0  0  0  0
    1.0416   -2.3784    0.0000 O   0  0  0  0  0  0  0  0  0  0  0  0
    0.0000   -0.0000    0.0000 C   0  0  0  0  0  0  0  0  0  0  0  0
   -0.7145   -0.4125    0.0000 C   0  0  0  0  0  0  0  0  0  0  0  0
   -1.4289    0.0000    0.0000 Cl  0  0  0  0  0  0  0  0  0  0  0  0
  1  2  1  0  0  0  0
  2  3  2  0  0  0  0
  2  4  2  0  0  0  0
  2  5  1  0  0  0  0
  5  6  4  0  0  0  0
  6  7  4  0  0  0  0
  7  8  4  0  0  0  0
  8  9  1  0  0  0  0
  9 10  1  0  0  0  0
 10 11  1  0  0  0  0
 11 12  1  0  0  0  0
 12 13  1  0  0  0  0
 13 14  1  0  0  0  0
 14 15  1  0  0  0  0
 15 16  1  0  0  0  0
 12 16  1  0  0  0  0
 10 17  1  0  0  0  0
 17 18  1  0  0  0  0
  7 18  1  0  0  0  0
 18 19  2  0  0  0  0
 18 20  2  0  0  0  0
  8 21  4  0  0  0  0
 21 22  4  0  0  0  0
  5 22  4  0  0  0  0
 22 23  1  0  0  0  0
M  END

> <ChembankId>
1057366

> <SMILES>
NS(=O)(=O)c1cc2c(NC(CC3CCCC3)NS2(=O)=O)cc1Cl

> <InChI>
1/C13H18ClN3O4S2/c14-9-6-10-12(7-11(9)22(15,18)19)23(20,21)17-13(16-10)5-8-3-1-2-4-8/h6-8,13,16-17H,1-5H2,(H2,15,18,19)

$$$$
3069779
  Marvin  11101114202D          

 31 34  0  0  1  0            999 V2000
    5.5648    3.0385    0.0000 N   0  0  0  0  0  0  0  0  0  0  0  0
    5.5648    2.2135    0.0000 C   0  0  0  0  0  0  0  0  0  0  0  0
    6.2793    1.8010    0.0000 O   0  0  0  0  0  0  0  0  0  0  0  0
    4.8503    1.8010    0.0000 C   0  0  0  0  0  0  0  0  0  0  0  0
    4.8503    0.9760    0.0000 C   0  0  0  0  0  0  0  0  0  0  0  0
    4.1358    0.5635    0.0000 C   0  0  0  0  0  0  0  0  0  0  0  0
    3.4214    0.9760    0.0000 N   0  3  0  0  0  0  0  0  0  0  0  0
    2.7069    0.5635    0.0000 C   0  0  0  0  0  0  0  0  0  0  0  0
    1.9924    0.9760    0.0000 C   0  0  0  0  0  0  0  0  0  0  0  0
    1.2780    0.5635    0.0000 C   0  0  0  0  0  0  0  0  0  0  0  0
    0.5635    0.9760    0.0000 N   0  0  0  0  0  0  0  0  0  0  0  0
    0.5635    1.8010    0.0000 C   0  0  2  0  0  0  0  0  0  0  0  0
    1.2780    2.2135    0.0000 S   0  0  0  0  0  0  0  0  0  0  0  0
    1.9924    1.8010    0.0000 C   0  0  0  0  0  0  0  0  0  0  0  0
   -0.2615    1.8010    0.0000 C   0  0  2  0  0  0  0  0  0  0  0  0
   -0.8449    2.3843    0.0000 N   0  0  0  0  0  0  0  0  0  0  0  0
   -0.6314    3.1812    0.0000 C   0  0  0  0  0  0  0  0  0  0  0  0
    0.1655    3.3948    0.0000 O   0  0  0  0  0  0  0  0  0  0  0  0
   -1.2147    3.7646    0.0000 C   0  0  0  0  0  0  0  0  0  0  0  0
   -2.0116    3.5511    0.0000 C   0  0  0  0  0  0  0  0  0  0  0  0
   -2.3073    2.7809    0.0000 C   0  0  0  0  0  0  0  0  0  0  0  0
   -3.1311    2.8240    0.0000 C   0  0  0  0  0  0  0  0  0  0  0  0
   -3.3447    3.6209    0.0000 C   0  0  0  0  0  0  0  0  0  0  0  0
   -2.6527    4.0703    0.0000 S   0  0  0  0  0  0  0  0  0  0  0  0
   -0.2615    0.9760    0.0000 C   0  0  0  0  0  0  0  0  0  0  0  0
   -0.8449    0.3926    0.0000 O   0  0  0  0  0  0  0  0  0  0  0  0
    1.2780   -0.2615    0.0000 C   0  0  0  0  0  0  0  0  0  0  0  0
    0.5635   -0.6740    0.0000 O   0  0  0  0  0  0  0  0  0  0  0  0
    1.9924   -0.6740    0.0000 O   0  0  0  0  0  0  0  0  0  0  0  0
    3.4214    1.8010    0.0000 C   0  0  0  0  0  0  0  0  0  0  0  0
    4.1358    2.2135    0.0000 C   0  0  0  0  0  0  0  0  0  0  0  0
  1  2  1  0  0  0  0
  2  3  2  0  0  0  0
  2  4  1  0  0  0  0
  4  5  4  0  0  0  0
  5  6  4  0  0  0  0
  6  7  4  0  0  0  0
  7  8  1  0  0  0  0
  8  9  1  0  0  0  0
  9 10  2  0  0  0  0
 10 11  1  0  0  0  0
 12 11  1  1  0  0  0
 12 13  1  0  0  0  0
 13 14  1  0  0  0  0
  9 14  1  0  0  0  0
 12 15  1  0  0  0  0
 15 16  1  1  0  0  0
 16 17  1  0  0  0  0
 17 18  2  0  0  0  0
 17 19  1  0  0  0  0
 19 20  1  0  0  0  0
 20 21  4  0  0  0  0
 21 22  4  0  0  0  0
 22 23  4  0  0  0  0
 23 24  4  0  0  0  0
 20 24  4  0  0  0  0
 15 25  1  0  0  0  0
 11 25  1  0  0  0  0
 25 26  2  0  0  0  0
 10 27  1  0  0  0  0
 27 28  2  0  0  0  0
 27 29  1  0  0  0  0
  7 30  4  0  0  0  0
 30 31  4  0  0  0  0
  4 31  4  0  0  0  0
M  CHG  1   7   1
M  END

> <ChembankId>
3069779

> <SMILES>
NC(=O)c1cc[n+](CC2=C(N3[C@H](SC2)[C@H](NC(=O)Cc4cccs4)C3=O)C(=O)O)cc1

> <InChI>
1/C20H18N4O5S2/c21-17(26)11-3-5-23(6-4-11)9-12-10-31-19-15(18(27)24(19)16(12)20(28)29)22-14(25)8-13-2-1-7-30-13/h1-7,15,19H,8-10H2,(H3-,21,22,25,26,28,29)/p+1

$$$$
3069780
  Marvin  11101114202D          

 27 30  0  0  0  0            999 V2000
   -2.8579    4.9500    0.0000 O   0  0  0  0  0  0  0  0  0  0  0  0
   -2.1434    4.5375    0.0000 C   0  0  0  0  0  0  0  0  0  0  0  0
   -1.4289    4.9500    0.0000 C   0  0  0  0  0  0  0  0  0  0  0  0
   -0.7145    4.5375    0.0000 N   0  0  0  0  0  0  0  0  0  0  0  0
   -0.0000    4.9500    0.0000 C   0  0  0  0  0  0  0  0  0  0  0  0
    0.7145    4.5375    0.0000 C   0  0  0  0  0  0  0  0  0  0  0  0
    0.7145    3.7125    0.0000 N   0  0  0  0  0  0  0  0  0  0  0  0
    1.4289    3.3000    0.0000 C   0  0  0  0  0  0  0  0  0  0  0  0
    1.4289    2.4750    0.0000 C   0  0  0  0  0  0  0  0  0  0  0  0
    2.1434    2.0625    0.0000 C   0  0  0  0  0  0  0  0  0  0  0  0
    2.1434    1.2375    0.0000 C   0  0  0  0  0  0  0  0  0  0  0  0
    2.8579    0.8250    0.0000 C   0  0  0  0  0  0  0  0  0  0  0  0
    3.5724    1.2375    0.0000 C   0  0  0  0  0  0  0  0  0  0  0  0
    4.2868    0.8250    0.0000 C   0  0  0  0  0  0  0  0  0  0  0  0
    4.2868   -0.0000    0.0000 C   0  0  0  0  0  0  0  0  0  0  0  0
    3.5724   -0.4125    0.0000 C   0  0  0  0  0  0  0  0  0  0  0  0
    2.8579    0.0000    0.0000 C   0  0  0  0  0  0  0  0  0  0  0  0
    2.1434   -0.4125    0.0000 S   0  0  0  0  0  0  0  0  0  0  0  0
    1.4289    0.0000    0.0000 C   0  0  0  0  0  0  0  0  0  0  0  0
    0.7145   -0.4125    0.0000 C   0  0  0  0  0  0  0  0  0  0  0  0
    0.0000    0.0000    0.0000 C   0  0  0  0  0  0  0  0  0  0  0  0
    0.0000    0.8250    0.0000 C   0  0  0  0  0  0  0  0  0  0  0  0
   -0.7145    1.2375    0.0000 Cl  0  0  0  0  0  0  0  0  0  0  0  0
    0.7145    1.2375    0.0000 C   0  0  0  0  0  0  0  0  0  0  0  0
    1.4289    0.8250    0.0000 C   0  0  0  0  0  0  0  0  0  0  0  0
   -0.0000    3.3000    0.0000 C   0  0  0  0  0  0  0  0  0  0  0  0
   -0.7145    3.7125    0.0000 C   0  0  0  0  0  0  0  0  0  0  0  0
  1  2  1  0  0  0  0
  2  3  1  0  0  0  0
  3  4  1  0  0  0  0
  4  5  1  0  0  0  0
  5  6  1  0  0  0  0
  6  7  1  0  0  0  0
  7  8  1  0  0  0  0
  8  9  1  0  0  0  0
  9 10  1  0  0  0  0
 10 11  2  0  0  0  0
 11 12  1  0  0  0  0
 12 13  4  0  0  0  0
 13 14  4  0  0  0  0
 14 15  4  0  0  0  0
 15 16  4  0  0  0  0
 16 17  4  0  0  0  0
 12 17  4  0  0  0  0
 17 18  1  0  0  0  0
 18 19  1  0  0  0  0
 19 20  4  0  0  0  0
 20 21  4  0  0  0  0
 21 22  4  0  0  0  0
 22 23  1  0  0  0  0
 22 24  4  0  0  0  0
 24 25  4  0  0  0  0
 11 25  1  0  0  0  0
 19 25  4  0  0  0  0
  7 26  1  0  0  0  0
 26 27  1  0  0  0  0
  4 27  1  0  0  0  0
M  END

> <ChembankId>
3069780

> <SMILES>
OCCN1CCN(CC/C=C\2/c3ccccc3Sc4ccc(Cl)cc24)CC1

> <InChI>
1/C22H25ClN2OS/c23-17-7-8-22-20(16-17)18(19-4-1-2-6-21(19)27-22)5-3-9-24-10-12-25(13-11-24)14-15-26/h1-2,4-8,16,26H,3,9-15H2

$$$$
3188032
  Marvin  11101114202D          

 43 46  0  0  1  0            999 V2000
    2.1434   -2.0625    0.0000 C   0  0  0  0  0  0  0  0  0  0  0  0
    1.4289   -2.4750    0.0000 N   0  0  0  0  0  0  0  0  0  0  0  0
    0.7145   -2.0625    0.0000 C   0  0  0  0  0  0  0  0  0  0  0  0
    1.4289   -3.3000    0.0000 C   0  0  1  0  0  0  0  0  0  0  0  0
    0.7145   -3.7125    0.0000 C   0  0  2  0  0  0  0  0  0  0  0  0
    0.0000   -3.3000    0.0000 C   0  0  0  0  0  0  0  0  0  0  0  0
   -0.7145   -3.7125    0.0000 C   0  0  1  0  0  0  0  0  0  0  0  0
   -0.7145   -4.5375    0.0000 C   0  0  0  0  0  0  0  0  0  0  0  0
    0.0000   -4.9500    0.0000 C   0  0  0  0  0  0  0  0  0  0  0  0
    0.0000   -5.7750    0.0000 O   0  0  0  0  0  0  0  0  0  0  0  0
    0.7145   -4.5375    0.0000 C   0  0  1  0  0  0  0  0  0  0  0  0
    0.7145   -5.3625    0.0000 O   0  0  0  0  0  0  0  0  0  0  0  0
    1.4289   -4.9500    0.0000 C   0  0  0  0  0  0  0  0  0  0  0  0
    1.4289   -5.7750    0.0000 O   0  0  0  0  0  0  0  0  0  0  0  0
    2.1434   -4.5375    0.0000 C   0  0  0  0  0  0  0  0  0  0  0  0
    2.1434   -3.7125    0.0000 C   0  0  0  0  0  0  0  0  0  0  0  0
    2.8579   -3.3000    0.0000 O   0  0  0  0  0  0  0  0  0  0  0  0
    2.8579   -4.9500    0.0000 C   0  0  0  0  0  0  0  0  0  0  0  0
    2.8579   -5.7750    0.0000 O   0  0  0  0  0  0  0  0  0  0  0  0
    3.5724   -4.5375    0.0000 N   0  0  0  0  0  0  0  0  0  0  0  0
    4.2868   -4.9500    0.0000 C   0  0  0  0  0  0  0  0  0  0  0  0
    5.0013   -4.5375    0.0000 N   0  0  0  0  0  0  0  0  0  0  0  0
    5.7158   -4.9500    0.0000 C   0  0  0  0  0  0  0  0  0  0  0  0
    6.4302   -4.5375    0.0000 C   0  0  0  0  0  0  0  0  0  0  0  0
    7.1447   -4.9500    0.0000 C   0  0  0  0  0  0  0  0  0  0  0  0
    7.8592   -4.5375    0.0000 C   0  0  0  0  0  0  0  0  0  0  0  0
    8.5737   -4.9500    0.0000 C   0  0  0  0  0  0  0  0  0  0  0  0
    9.2881   -4.5375    0.0000 N   0  0  0  0  0  0  0  0  0  0  0  0
    5.7158   -5.7750    0.0000 C   0  0  0  0  0  0  0  0  0  0  0  0
    6.4302   -6.1875    0.0000 O   0  0  0  0  0  0  0  0  0  0  0  0
    5.0013   -6.1875    0.0000 O   0  0  0  0  0  0  0  0  0  0  0  0
   -1.4289   -4.9500    0.0000 C   0  0  0  0  0  0  0  0  0  0  0  0
   -1.4289   -5.7750    0.0000 O   0  0  0  0  0  0  0  0  0  0  0  0
   -2.1434   -4.5375    0.0000 C   0  0  0  0  0  0  0  0  0  0  0  0
   -2.8579   -4.9500    0.0000 C   0  0  0  0  0  0  0  0  0  0  0  0
   -2.8579   -5.7750    0.0000 O   0  0  0  0  0  0  0  0  0  0  0  0
   -3.5724   -4.5375    0.0000 C   0  0  0  0  0  0  0  0  0  0  0  0
   -3.5724   -3.7125    0.0000 C   0  0  0  0  0  0  0  0  0  0  0  0
   -2.8579   -3.3000    0.0000 C   0  0  0  0  0  0  0  0  0  0  0  0
   -2.1434   -3.7125    0.0000 C   0  0  0  0  0  0  0  0  0  0  0  0
   -1.4289   -3.3000    0.0000 C   0  0  2  0  0  0  0  0  0  0  0  0
   -1.8163   -2.5716    0.0000 C   0  0  0  0  0  0  0  0  0  0  0  0
   -1.0416   -2.5716    0.0000 O   0  0  0  0  0  0  0  0  0  0  0  0
  1  2  1  0  0  0  0
  2  3  1  0  0  0  0
  4  2  1  6  0  0  0
  4  5  1  0  0  0  0
  5  6  1  1  0  0  0
  7  6  1  1  0  0  0
  7  8  1  0  0  0  0
  8  9  2  0  0  0  0
  9 10  1  0  0  0  0
  9 11  1  0  0  0  0
  5 11  1  0  0  0  0
 11 12  1  6  0  0  0
 11 13  1  0  0  0  0
 13 14  2  0  0  0  0
 13 15  1  0  0  0  0
 15 16  2  0  0  0  0
  4 16  1  0  0  0  0
 16 17  1  0  0  0  0
 15 18  1  0  0  0  0
 18 19  2  0  0  0  0
 18 20  1  0  0  0  0
 20 21  1  0  0  0  0
 21 22  1  0  0  0  0
 22 23  1  0  0  0  0
 23 24  1  0  0  0  0
 24 25  1  0  0  0  0
 25 26  1  0  0  0  0
 26 27  1  0  0  0  0
 27 28  1  0  0  0  0
 23 29  1  0  0  0  0
 29 30  2  0  0  0  0
 29 31  1  0  0  0  0
  8 32  1  0  0  0  0
 32 33  2  0  0  0  0
 32 34  1  0  0  0  0
 34 35  4  0  0  0  0
 35 36  1  0  0  0  0
 35 37  4  0  0  0  0
 37 38  4  0  0  0  0
 38 39  4  0  0  0  0
 39 40  4  0  0  0  0
 34 40  4  0  0  0  0
 40 41  1  0  0  0  0
  7 41  1  0  0  0  0
 41 42  1  6  0  0  0
 41 43  1  1  0  0  0
M  END

> <ChembankId>
3188032

> <SMILES>
CN(C)[C@H]1[C@@H]2C[C@H]3C(=C(O)[C@]2(O)C(=O)C(=C1O)C(=O)NCNC(CCCCN)C(=O)O)C(=O)c4c(O)cccc4[C@@]3(C)O

> <InChI>
1/C29H38N4O10/c1-28(42)13-7-6-9-17(34)18(13)22(35)19-14(28)11-15-21(33(2)3)23(36)20(25(38)29(15,43)24(19)37)26(39)32-12-31-16(27(40)41)8-4-5-10-30/h6-7,9,14-16,21,31,34,36-37,42-43H,4-5,8,10-12,30H2,1-3H3,(H,32,39)(H,40,41)

$$$$
3069781
  Marvin  11101114202D          

 28 31  0  0  1  0            999 V2000
   -0.0853   -4.2178    0.0000 C   0  0  0  0  0  0  0  0  0  0  0  0
    0.4211   -3.5665    0.0000 C   0  0  0  0  0  0  0  0  0  0  0  0
    0.1102   -2.8023    0.0000 O   0  0  0  0  0  0  0  0  0  0  0  0
    1.2383   -3.6793    0.0000 O   0  0  0  0  0  0  0  0  0  0  0  0
    1.7447   -3.0280    0.0000 C   0  0  0  0  0  0  0  0  0  0  0  0
    2.5619   -3.1408    0.0000 C   0  0  0  0  0  0  0  0  0  0  0  0
    2.8728   -3.9050    0.0000 O   0  0  0  0  0  0  0  0  0  0  0  0
    3.0683   -2.4895    0.0000 C   0  0  1  0  0  0  0  0  0  0  0  0
    2.8390   -1.6970    0.0000 C   0  0  0  0  0  0  0  0  0  0  0  0
    3.5218   -1.2340    0.0000 C   0  0  0  0  0  0  0  0  0  0  0  0
    4.1731   -1.7404    0.0000 C   0  0  1  0  0  0  0  0  0  0  0  0
    4.9853   -1.5952    0.0000 C   0  0  2  0  0  0  0  0  0  0  0  0
    5.2655   -0.8192    0.0000 C   0  0  0  0  0  0  0  0  0  0  0  0
    6.0777   -0.6740    0.0000 C   0  0  0  0  0  0  0  0  0  0  0  0
    6.6095   -1.3047    0.0000 C   0  0  1  0  0  0  0  0  0  0  0  0
    7.4216   -1.1595    0.0000 C   0  0  0  0  0  0  0  0  0  0  0  0
    7.9534   -1.7902    0.0000 C   0  0  2  0  0  0  0  0  0  0  0  0
    8.7655   -1.6450    0.0000 O   0  0  0  0  0  0  0  0  0  0  0  0
    7.6731   -2.5662    0.0000 C   0  0  0  0  0  0  0  0  0  0  0  0
    6.8610   -2.7114    0.0000 C   0  0  0  0  0  0  0  0  0  0  0  0
    6.3292   -2.0807    0.0000 C   0  0  1  0  0  0  0  0  0  0  0  0
    6.0489   -2.8566    0.0000 C   0  0  0  0  0  0  0  0  0  0  0  0
    5.5171   -2.2259    0.0000 C   0  0  1  0  0  0  0  0  0  0  0  0
    5.2368   -3.0018    0.0000 C   0  0  0  0  0  0  0  0  0  0  0  0
    5.7686   -3.6325    0.0000 O   0  0  0  0  0  0  0  0  0  0  0  0
    4.4247   -3.1470    0.0000 C   0  0  0  0  0  0  0  0  0  0  0  0
    3.8928   -2.5163    0.0000 C   0  0  2  0  0  0  0  0  0  0  0  0
    3.5330   -3.2587    0.0000 C   0  0  0  0  0  0  0  0  0  0  0  0
  1  2  1  0  0  0  0
  2  3  2  0  0  0  0
  2  4  1  0  0  0  0
  4  5  1  0  0  0  0
  5  6  1  0  0  0  0
  6  7  2  0  0  0  0
  8  6  1  1  0  0  0
  8  9  1  0  0  0  0
  9 10  1  0  0  0  0
 11 10  1  1  0  0  0
 11 12  1  0  0  0  0
 12 13  1  6  0  0  0
 13 14  1  0  0  0  0
 14 15  1  0  0  0  0
 15 16  1  1  0  0  0
 16 17  1  0  0  0  0
 17 18  1  6  0  0  0
 17 19  1  0  0  0  0
 19 20  1  0  0  0  0
 20 21  1  0  0  0  0
 15 21  1  0  0  0  0
 21 22  1  1  0  0  0
 21 23  1  0  0  0  0
 12 23  1  0  0  0  0
 23 24  1  1  0  0  0
 24 25  2  0  0  0  0
 24 26  1  0  0  0  0
 26 27  1  0  0  0  0
  8 27  1  0  0  0  0
 11 27  1  0  0  0  0
 27 28  1  1  0  0  0
M  END

> <ChembankId>
3069781

> <SMILES>
CC(=O)OCC(=O)[C@H]1CC[C@H]2[C@@H]3CC[C@H]4C[C@H](O)CC[C@]4(C)[C@H]3C(=O)C[C@]12C

> <InChI>
1/C23H34O5/c1-13(24)28-12-20(27)18-7-6-17-16-5-4-14-10-15(25)8-9-22(14,2)21(16)19(26)11-23(17,18)3/h14-18,21,25H,4-12H2,1-3H3

$$$$
3188033
  Marvin  11101114202D          

 17 18  0  0  0  0            999 V2000
    0.7204    0.5281    0.0000 C   0  0  0  0  0  0  0  0  0  0  0  0
    0.1593   -0.0767    0.0000 C   0  0  0  0  0  0  0  0  0  0  0  0
   -0.6450    0.1069    0.0000 C   0  0  0  0  0  0  0  0  0  0  0  0
   -1.4493   -0.0767    0.0000 C   0  0  0  0  0  0  0  0  0  0  0  0
   -2.0943    0.4377    0.0000 C   0  0  0  0  0  0  0  0  0  0  0  0
   -2.0943    1.2627    0.0000 C   0  0  0  0  0  0  0  0  0  0  0  0
   -1.4493    1.7770    0.0000 C   0  0  0  0  0  0  0  0  0  0  0  0
   -0.6450    1.5935    0.0000 N   0  0  0  0  0  0  0  0  0  0  0  0
   -0.1306    2.2385    0.0000 C   0  0  0  0  0  0  0  0  0  0  0  0
   -0.2871    0.8502    0.0000 C   0  0  0  0  0  0  0  0  0  0  0  0
   -0.6450   -0.7181    0.0000 C   0  0  0  0  0  0  0  0  0  0  0  0
    0.0695   -1.1306    0.0000 C   0  0  0  0  0  0  0  0  0  0  0  0
    0.0695   -1.9556    0.0000 C   0  0  0  0  0  0  0  0  0  0  0  0
   -0.6450   -2.3681    0.0000 C   0  0  0  0  0  0  0  0  0  0  0  0
   -1.3595   -1.9556    0.0000 C   0  0  0  0  0  0  0  0  0  0  0  0
   -2.0740   -2.3681    0.0000 O   0  0  0  0  0  0  0  0  0  0  0  0
   -1.3595   -1.1306    0.0000 C   0  0  0  0  0  0  0  0  0  0  0  0
  1  2  1  0  0  0  0
  2  3  1  0  0  0  0
  3  4  1  0  0  0  0
  4  5  1  0  0  0  0
  5  6  1  0  0  0  0
  6  7  1  0  0  0  0
  7  8  1  0  0  0  0
  8  9  1  0  0  0  0
  8 10  1  0  0  0  0
  3 10  1  0  0  0  0
  3 11  1  0  0  0  0
 11 12  4  0  0  0  0
 12 13  4  0  0  0  0
 13 14  4  0  0  0  0
 14 15  4  0  0  0  0
 15 16  1  0  0  0  0
 15 17  4  0  0  0  0
 11 17  4  0  0  0  0
M  END

> <ChembankId>
3188033

> <SMILES>
CCC1(CCCCN(C)C1)c2cccc(O)c2

> <InChI>
1/C15H23NO/c1-3-15(9-4-5-10-16(2)12-15)13-7-6-8-14(17)11-13/h6-8,11,17H,3-5,9-10,12H2,1-2H3

$$$$
3069782
  Marvin  11101114202D          

 21 25  0  0  1  0            999 V2000
    3.6270   -3.2529    0.0000 C   0  0  0  0  0  0  0  0  0  0  0  0
    3.9332   -2.4868    0.0000 C   0  0  2  0  0  0  0  0  0  0  0  0
    4.5085   -3.0781    0.0000 C   0  0  0  0  0  0  0  0  0  0  0  0
    5.3082   -2.8755    0.0000 C   0  0  0  0  0  0  0  0  0  0  0  0
    5.5326   -2.0816    0.0000 C   0  0  1  0  0  0  0  0  0  0  0  0
    4.9573   -1.4903    0.0000 C   0  0  1  0  0  0  0  0  0  0  0  0
    5.1817   -0.6964    0.0000 C   0  0  0  0  0  0  0  0  0  0  0  0
    5.9814   -0.4938    0.0000 C   0  0  0  0  0  0  0  0  0  0  0  0
    6.5567   -1.0851    0.0000 C   0  0  1  0  0  0  0  0  0  0  0  0
    7.3565   -0.8824    0.0000 C   0  0  0  0  0  0  0  0  0  0  0  0
    7.9318   -1.4737    0.0000 C   0  0  0  0  0  0  0  0  0  0  0  0
    8.5072   -2.0650    0.0000 S   0  0  0  0  0  0  0  0  0  0  0  0
    7.7074   -2.2676    0.0000 C   0  0  0  0  0  0  0  0  0  0  0  0
    6.9077   -2.4702    0.0000 C   0  0  0  0  0  0  0  0  0  0  0  0
    6.3323   -1.8790    0.0000 C   0  0  2  0  0  0  0  0  0  0  0  0
    6.1080   -2.6729    0.0000 C   0  0  0  0  0  0  0  0  0  0  0  0
    4.1575   -1.6929    0.0000 C   0  0  2  0  0  0  0  0  0  0  0  0
    3.4718   -1.2342    0.0000 C   0  0  0  0  0  0  0  0  0  0  0  0
    2.8237   -1.7446    0.0000 C   0  0  0  0  0  0  0  0  0  0  0  0
    3.1088   -2.5187    0.0000 C   0  0  2  0  0  0  0  0  0  0  0  0
    2.6500   -3.2044    0.0000 O   0  0  0  0  0  0  0  0  0  0  0  0
  2  1  1  1  0  0  0
  2  3  1  0  0  0  0
  3  4  1  0  0  0  0
  5  4  1  1  0  0  0
  5  6  1  0  0  0  0
  6  7  1  6  0  0  0
  7  8  1  0  0  0  0
  8  9  1  0  0  0  0
  9 10  1  1  0  0  0
 10 11  1  0  0  0  0
 11 12  1  0  0  0  0
 12 13  1  0  0  0  0
 11 13  1  0  0  0  0
 13 14  1  0  0  0  0
 14 15  1  0  0  0  0
  9 15  1  0  0  0  0
  5 15  1  0  0  0  0
 15 16  1  1  0  0  0
  6 17  1  0  0  0  0
  2 17  1  0  0  0  0
 17 18  1  1  0  0  0
 18 19  1  0  0  0  0
 19 20  1  0  0  0  0
  2 20  1  0  0  0  0
 20 21  1  1  0  0  0
M  END

> <ChembankId>
3069782

> <SMILES>
C[C@@]12CC[C@H]3[C@@H](CC[C@H]4CC5SC5C[C@@]43C)[C@@H]2CC[C@@H]1O

> <InChI>
1/C19H30OS/c1-18-8-7-14-12(13(18)5-6-17(18)20)4-3-11-9-15-16(21-15)10-19(11,14)2/h11-17,20H,3-10H2,1-2H3

$$$$
3188035
  Marvin  11101114202D          

 26 27  0  0  0  0            999 V2000
   -2.0367   -1.2991    0.0000 C   0  0  0  0  0  0  0  0  0  0  0  0
   -2.7512   -1.7116    0.0000 C   0  0  0  0  0  0  0  0  0  0  0  0
   -2.7512   -2.5366    0.0000 C   0  0  0  0  0  0  0  0  0  0  0  0
   -3.4656   -2.9491    0.0000 C   0  0  0  0  0  0  0  0  0  0  0  0
   -3.4656   -3.7741    0.0000 C   0  0  0  0  0  0  0  0  0  0  0  0
   -4.1801   -4.1866    0.0000 O   0  0  0  0  0  0  0  0  0  0  0  0
   -2.0367   -2.9491    0.0000 S   0  0  0  0  0  0  0  0  0  0  0  0
   -2.0367   -3.7741    0.0000 S   0  0  0  0  0  0  0  0  0  0  0  0
   -1.3222   -4.1866    0.0000 C   0  0  0  0  0  0  0  0  0  0  0  0
   -1.3222   -5.0116    0.0000 C   0  0  0  0  0  0  0  0  0  0  0  0
   -0.6548   -5.4965    0.0000 C   0  0  0  0  0  0  0  0  0  0  0  0
   -0.9097   -6.2812    0.0000 C   0  0  0  0  0  0  0  0  0  0  0  0
   -1.7347   -6.2812    0.0000 C   0  0  0  0  0  0  0  0  0  0  0  0
   -1.9897   -5.4965    0.0000 O   0  0  0  0  0  0  0  0  0  0  0  0
   -3.4656   -1.2991    0.0000 N   0  0  0  0  0  0  0  0  0  0  0  0
   -4.1801   -1.7116    0.0000 C   0  0  0  0  0  0  0  0  0  0  0  0
   -4.8946   -1.2991    0.0000 C   0  0  0  0  0  0  0  0  0  0  0  0
   -5.6091   -1.7116    0.0000 C   0  0  0  0  0  0  0  0  0  0  0  0
   -6.3235   -1.2991    0.0000 N   0  0  0  0  0  0  0  0  0  0  0  0
   -6.3235   -0.4741    0.0000 C   0  0  0  0  0  0  0  0  0  0  0  0
   -7.0380   -0.0616    0.0000 C   0  0  0  0  0  0  0  0  0  0  0  0
   -5.6091   -0.0616    0.0000 N   0  0  0  0  0  0  0  0  0  0  0  0
   -4.8946   -0.4741    0.0000 C   0  0  0  0  0  0  0  0  0  0  0  0
   -4.1801   -0.0616    0.0000 N   0  0  0  0  0  0  0  0  0  0  0  0
   -3.4656   -0.4741    0.0000 C   0  0  0  0  0  0  0  0  0  0  0  0
   -2.7512   -0.0616    0.0000 O   0  0  0  0  0  0  0  0  0  0  0  0
  1  2  1  0  0  0  0
  2  3  2  0  0  0  0
  3  4  1  0  0  0  0
  4  5  1  0  0  0  0
  5  6  1  0  0  0  0
  3  7  1  0  0  0  0
  7  8  1  0  0  0  0
  8  9  1  0  0  0  0
  9 10  1  0  0  0  0
 10 11  1  0  0  0  0
 11 12  1  0  0  0  0
 12 13  1  0  0  0  0
 13 14  1  0  0  0  0
 10 14  1  0  0  0  0
  2 15  1  0  0  0  0
 15 16  1  0  0  0  0
 16 17  1  0  0  0  0
 17 18  4  0  0  0  0
 18 19  4  0  0  0  0
 19 20  4  0  0  0  0
 20 21  1  0  0  0  0
 20 22  4  0  0  0  0
 22 23  4  0  0  0  0
 17 23  4  0  0  0  0
 23 24  1  0  0  0  0
 15 25  1  0  0  0  0
 25 26  2  0  0  0  0
M  END

> <ChembankId>
3188035

> <SMILES>
C/C(=C(/CCO)\SSCC1CCCO1)/N(Cc2cnc(C)nc2N)C=O

> <InChI>
1/C17H26N4O3S2/c1-12(16(5-6-22)26-25-10-15-4-3-7-24-15)21(11-23)9-14-8-19-13(2)20-17(14)18/h8,11,15,22H,3-7,9-10H2,1-2H3,(H2,18,19,20)

$$$$
3188145
  Marvin  11101114202D          

 32 34  0  0  1  0            999 V2000
    1.7344   -3.7769    0.0000 C   0  0  0  0  0  0  0  0  0  0  0  0
    2.4489   -3.3644    0.0000 C   0  0  0  0  0  0  0  0  0  0  0  0
    2.8614   -4.0788    0.0000 C   0  0  0  0  0  0  0  0  0  0  0  0
    2.0364   -2.6499    0.0000 C   0  0  0  0  0  0  0  0  0  0  0  0
    3.1634   -2.9519    0.0000 C   0  0  0  0  0  0  0  0  0  0  0  0
    3.1634   -2.1269    0.0000 O   0  0  0  0  0  0  0  0  0  0  0  0
    3.8779   -3.3644    0.0000 O   0  0  0  0  0  0  0  0  0  0  0  0
    4.5923   -2.9519    0.0000 C   0  0  0  0  0  0  0  0  0  0  0  0
    5.3068   -3.3644    0.0000 O   0  0  0  0  0  0  0  0  0  0  0  0
    6.0213   -2.9519    0.0000 C   0  0  0  0  0  0  0  0  0  0  0  0
    6.0213   -2.1269    0.0000 O   0  0  0  0  0  0  0  0  0  0  0  0
    6.7357   -3.3644    0.0000 C   0  0  2  0  0  0  0  0  0  0  0  0
    7.4894   -3.0288    0.0000 N   0  0  0  0  0  0  0  0  0  0  0  0
    8.0414   -3.6419    0.0000 C   0  0  2  0  0  0  0  0  0  0  0  0
    7.6289   -4.3564    0.0000 S   0  0  0  0  0  0  0  0  0  0  0  0
    6.8220   -4.1848    0.0000 C   0  0  0  0  0  0  0  0  0  0  0  0
    6.5588   -4.9667    0.0000 C   0  0  0  0  0  0  0  0  0  0  0  0
    6.0168   -4.3648    0.0000 C   0  0  0  0  0  0  0  0  0  0  0  0
    8.6545   -3.0899    0.0000 C   0  0  2  0  0  0  0  0  0  0  0  0
    9.4784   -3.1330    0.0000 N   0  0  0  0  0  0  0  0  0  0  0  0
    9.8530   -3.8681    0.0000 C   0  0  0  0  0  0  0  0  0  0  0  0
    9.4036   -4.5600    0.0000 O   0  0  0  0  0  0  0  0  0  0  0  0
   10.6768   -3.9113    0.0000 C   0  0  2  0  0  0  0  0  0  0  0  0
   11.1261   -3.2194    0.0000 N   0  0  0  0  0  0  0  0  0  0  0  0
   11.0514   -4.6464    0.0000 C   0  0  0  0  0  0  0  0  0  0  0  0
   11.8752   -4.6896    0.0000 C   0  0  0  0  0  0  0  0  0  0  0  0
   12.2498   -5.4246    0.0000 C   0  0  0  0  0  0  0  0  0  0  0  0
   11.8004   -6.1165    0.0000 C   0  0  0  0  0  0  0  0  0  0  0  0
   10.9766   -6.0734    0.0000 C   0  0  0  0  0  0  0  0  0  0  0  0
   10.6020   -5.3383    0.0000 C   0  0  0  0  0  0  0  0  0  0  0  0
    8.1025   -2.4768    0.0000 C   0  0  0  0  0  0  0  0  0  0  0  0
    8.1457   -1.6529    0.0000 O   0  0  0  0  0  0  0  0  0  0  0  0
  1  2  1  0  0  0  0
  2  3  1  0  0  0  0
  2  4  1  0  0  0  0
  2  5  1  0  0  0  0
  5  6  2  0  0  0  0
  5  7  1  0  0  0  0
  7  8  1  0  0  0  0
  8  9  1  0  0  0  0
  9 10  1  0  0  0  0
 10 11  2  0  0  0  0
 12 10  1  6  0  0  0
 12 13  1  0  0  0  0
 14 13  1  1  0  0  0
 14 15  1  0  0  0  0
 15 16  1  0  0  0  0
 12 16  1  0  0  0  0
 16 17  1  0  0  0  0
 16 18  1  0  0  0  0
 14 19  1  0  0  0  0
 19 20  1  1  0  0  0
 20 21  1  0  0  0  0
 21 22  2  0  0  0  0
 21 23  1  0  0  0  0
 23 24  1  6  0  0  0
 23 25  1  0  0  0  0
 25 26  4  0  0  0  0
 26 27  4  0  0  0  0
 27 28  4  0  0  0  0
 28 29  4  0  0  0  0
 29 30  4  0  0  0  0
 25 30  4  0  0  0  0
 19 31  1  0  0  0  0
 13 31  1  0  0  0  0
 31 32  2  0  0  0  0
M  END

> <ChembankId>
3188145

> <SMILES>
CC(C)(C)C(=O)OCOC(=O)[C@@H]1N2[C@H](SC1(C)C)[C@H](NC(=O)[C@H](N)c3ccccc3)C2=O

> <InChI>
1/C22H29N3O6S/c1-21(2,3)20(29)31-11-30-19(28)15-22(4,5)32-18-14(17(27)25(15)18)24-16(26)13(23)12-9-7-6-8-10-12/h6-10,13-15,18H,11,23H2,1-5H3,(H,24,26)

$$$$
3188146
  Marvin  11101114202D          

 34 38  0  0  1  0            999 V2000
    0.9199   -4.3256    0.0000 C   0  0  0  0  0  0  0  0  0  0  0  0
    0.3068   -3.7736    0.0000 C   0  0  0  0  0  0  0  0  0  0  0  0
    0.9199   -3.2216    0.0000 C   0  0  0  0  0  0  0  0  0  0  0  0
   -0.1781   -4.4410    0.0000 S   0  0  0  0  0  0  0  0  0  0  0  0
   -0.9628   -4.1861    0.0000 C   0  0  2  0  0  0  0  0  0  0  0  0
   -1.7878   -4.1861    0.0000 C   0  0  2  0  0  0  0  0  0  0  0  0
   -2.3711   -4.7695    0.0000 N   0  0  0  0  0  0  0  0  0  0  0  0
   -3.1680   -4.5559    0.0000 C   0  0  0  0  0  0  0  0  0  0  0  0
   -3.3815   -3.7590    0.0000 O   0  0  0  0  0  0  0  0  0  0  0  0
   -3.7514   -5.1393    0.0000 C   0  0  2  0  0  0  0  0  0  0  0  0
   -3.5378   -5.9362    0.0000 N   0  0  0  0  0  0  0  0  0  0  0  0
   -4.5483   -4.9258    0.0000 C   0  0  0  0  0  0  0  0  0  0  0  0
   -5.1316   -5.5091    0.0000 C   0  0  0  0  0  0  0  0  0  0  0  0
   -5.9285   -5.2956    0.0000 C   0  0  0  0  0  0  0  0  0  0  0  0
   -6.1420   -4.4987    0.0000 C   0  0  0  0  0  0  0  0  0  0  0  0
   -5.5587   -3.9154    0.0000 C   0  0  0  0  0  0  0  0  0  0  0  0
   -4.7618   -4.1289    0.0000 C   0  0  0  0  0  0  0  0  0  0  0  0
   -1.7878   -3.3611    0.0000 C   0  0  0  0  0  0  0  0  0  0  0  0
   -2.3711   -2.7777    0.0000 O   0  0  0  0  0  0  0  0  0  0  0  0
   -0.9628   -3.3611    0.0000 N   0  0  0  0  0  0  0  0  0  0  0  0
   -0.1781   -3.1062    0.0000 C   0  0  1  0  0  0  0  0  0  0  0  0
    0.0768   -2.3215    0.0000 C   0  0  0  0  0  0  0  0  0  0  0  0
   -0.4752   -1.7084    0.0000 O   0  0  0  0  0  0  0  0  0  0  0  0
    0.8838   -2.1500    0.0000 O   0  0  0  0  0  0  0  0  0  0  0  0
    1.1387   -1.3654    0.0000 C   0  0  0  0  0  0  0  0  0  0  0  0
    0.6538   -0.6979    0.0000 O   0  0  0  0  0  0  0  0  0  0  0  0
    1.1387   -0.0305    0.0000 C   0  0  0  0  0  0  0  0  0  0  0  0
    0.8838    0.7541    0.0000 O   0  0  0  0  0  0  0  0  0  0  0  0
    1.9233   -0.2854    0.0000 C   0  0  0  0  0  0  0  0  0  0  0  0
    2.6378    0.1271    0.0000 C   0  0  0  0  0  0  0  0  0  0  0  0
    3.3523   -0.2854    0.0000 C   0  0  0  0  0  0  0  0  0  0  0  0
    3.3523   -1.1104    0.0000 C   0  0  0  0  0  0  0  0  0  0  0  0
    2.6378   -1.5229    0.0000 C   0  0  0  0  0  0  0  0  0  0  0  0
    1.9233   -1.1104    0.0000 C   0  0  0  0  0  0  0  0  0  0  0  0
  1  2  1  0  0  0  0
  2  3  1  0  0  0  0
  2  4  1  0  0  0  0
  4  5  1  0  0  0  0
  5  6  1  0  0  0  0
  6  7  1  6  0  0  0
  7  8  1  0  0  0  0
  8  9  2  0  0  0  0
  8 10  1  0  0  0  0
 10 11  1  6  0  0  0
 10 12  1  0  0  0  0
 12 13  4  0  0  0  0
 13 14  4  0  0  0  0
 14 15  4  0  0  0  0
 15 16  4  0  0  0  0
 16 17  4  0  0  0  0
 12 17  4  0  0  0  0
  6 18  1  0  0  0  0
 18 19  2  0  0  0  0
 18 20  1  0  0  0  0
  5 20  1  6  0  0  0
 20 21  1  0  0  0  0
  2 21  1  0  0  0  0
 21 22  1  1  0  0  0
 22 23  2  0  0  0  0
 22 24  1  0  0  0  0
 24 25  1  0  0  0  0
 25 26  1  0  0  0  0
 26 27  1  0  0  0  0
 27 28  2  0  0  0  0
 27 29  1  0  0  0  0
 29 30  4  0  0  0  0
 30 31  4  0  0  0  0
 31 32  4  0  0  0  0
 32 33  4  0  0  0  0
 33 34  4  0  0  0  0
 25 34  1  0  0  0  0
 29 34  4  0  0  0  0
M  END

> <ChembankId>
3188146

> <SMILES>
CC1(C)S[C@@H]2[C@H](NC(=O)[C@H](N)c3ccccc3)C(=O)N2[C@H]1C(=O)OC4OC(=O)c5ccccc45

> <InChI>
1/C24H23N3O6S/c1-24(2)17(22(31)33-23-14-11-7-6-10-13(14)21(30)32-23)27-19(29)16(20(27)34-24)26-18(28)15(25)12-8-4-3-5-9-12/h3-11,15-17,20,23H,25H2,1-2H3,(H,26,28)

$$$$
2920
  Marvin  11101114202D          

 15 16  0  0  0  0            999 V2000
    2.5645    3.3000    0.0000 C   0  0  0  0  0  0  0  0  0  0  0  0
    2.5645    2.4750    0.0000 C   0  0  0  0  0  0  0  0  0  0  0  0
    3.2789    2.0625    0.0000 N   0  0  0  0  0  0  0  0  0  0  0  0
    3.9934    2.4750    0.0000 C   0  0  0  0  0  0  0  0  0  0  0  0
    4.7079    2.0625    0.0000 C   0  0  0  0  0  0  0  0  0  0  0  0
    3.2789    1.2375    0.0000 C   0  0  0  0  0  0  0  0  0  0  0  0
    3.9934    0.8250    0.0000 C   0  0  0  0  0  0  0  0  0  0  0  0
    3.9934    0.0000    0.0000 C   0  0  0  0  0  0  0  0  0  0  0  0
    4.7079   -0.4125    0.0000 C   0  0  0  0  0  0  0  0  0  0  0  0
    3.2789   -0.4125    0.0000 N   0  0  0  0  0  0  0  0  0  0  0  0
    2.5645    0.0000    0.0000 C   0  0  0  0  0  0  0  0  0  0  0  0
    1.7798   -0.2549    0.0000 N   0  0  0  0  0  0  0  0  0  0  0  0
    1.2949    0.4125    0.0000 C   0  0  0  0  0  0  0  0  0  0  0  0
    1.7798    1.0799    0.0000 N   0  0  0  0  0  0  0  0  0  0  0  0
    2.5645    0.8250    0.0000 N   0  0  0  0  0  0  0  0  0  0  0  0
  1  2  1  0  0  0  0
  2  3  1  0  0  0  0
  3  4  1  0  0  0  0
  4  5  1  0  0  0  0
  3  6  1  0  0  0  0
  6  7  4  0  0  0  0
  7  8  4  0  0  0  0
  8  9  1  0  0  0  0
  8 10  4  0  0  0  0
 10 11  4  0  0  0  0
 11 12  4  0  0  0  0
 12 13  4  0  0  0  0
 13 14  4  0  0  0  0
 14 15  4  0  0  0  0
  6 15  4  0  0  0  0
 11 15  4  0  0  0  0
M  END

> <ChembankId>
2920

> <SMILES>
CCN(CC)c1cc(C)nc2ncnn12

> <InChI>
1/C10H15N5/c1-4-14(5-2)9-6-8(3)13-10-11-7-12-15(9)10/h6-7H,4-5H2,1-3H3

$$$$
3069806
  Marvin  11101114202D          

 26 27  0  0  0  0            999 V2000
    2.1434   -6.1875    0.0000 O   0  0  0  0  0  0  0  0  0  0  0  0
    2.8579   -6.6000    0.0000 C   0  0  0  0  0  0  0  0  0  0  0  0
    3.5724   -6.1875    0.0000 C   0  0  0  0  0  0  0  0  0  0  0  0
    4.2868   -6.6000    0.0000 O   0  0  0  0  0  0  0  0  0  0  0  0
    5.0013   -6.1875    0.0000 C   0  0  0  0  0  0  0  0  0  0  0  0
    5.7158   -6.6000    0.0000 C   0  0  0  0  0  0  0  0  0  0  0  0
    6.4302   -6.1875    0.0000 O   0  0  0  0  0  0  0  0  0  0  0  0
    7.1447   -6.6000    0.0000 C   0  0  0  0  0  0  0  0  0  0  0  0
    7.1447   -7.4250    0.0000 O   0  0  0  0  0  0  0  0  0  0  0  0
    7.8592   -6.1875    0.0000 C   0  0  0  0  0  0  0  0  0  0  0  0
    7.8592   -5.3625    0.0000 C   0  0  0  0  0  0  0  0  0  0  0  0
    8.5737   -4.9500    0.0000 C   0  0  0  0  0  0  0  0  0  0  0  0
    9.2881   -5.3625    0.0000 C   0  0  0  0  0  0  0  0  0  0  0  0
    9.2881   -6.1875    0.0000 C   0  0  0  0  0  0  0  0  0  0  0  0
    8.5737   -6.6000    0.0000 C   0  0  0  0  0  0  0  0  0  0  0  0
    8.5737   -7.4250    0.0000 N   0  0  0  0  0  0  0  0  0  0  0  0
    9.2881   -7.8375    0.0000 C   0  0  0  0  0  0  0  0  0  0  0  0
   10.0026   -7.4250    0.0000 C   0  0  0  0  0  0  0  0  0  0  0  0
   10.7171   -7.8375    0.0000 C   0  0  0  0  0  0  0  0  0  0  0  0
   10.7171   -8.6625    0.0000 C   0  0  0  0  0  0  0  0  0  0  0  0
   10.0026   -9.0750    0.0000 C   0  0  0  0  0  0  0  0  0  0  0  0
    9.2881   -8.6625    0.0000 C   0  0  0  0  0  0  0  0  0  0  0  0
   10.0026   -9.9000    0.0000 C   0  0  0  0  0  0  0  0  0  0  0  0
   10.0026  -10.7250    0.0000 F   0  0  0  0  0  0  0  0  0  0  0  0
    9.1776   -9.9000    0.0000 F   0  0  0  0  0  0  0  0  0  0  0  0
   10.8276   -9.9000    0.0000 F   0  0  0  0  0  0  0  0  0  0  0  0
  1  2  1  0  0  0  0
  2  3  1  0  0  0  0
  3  4  1  0  0  0  0
  4  5  1  0  0  0  0
  5  6  1  0  0  0  0
  6  7  1  0  0  0  0
  7  8  1  0  0  0  0
  8  9  2  0  0  0  0
  8 10  1  0  0  0  0
 10 11  4  0  0  0  0
 11 12  4  0  0  0  0
 12 13  4  0  0  0  0
 13 14  4  0  0  0  0
 14 15  4  0  0  0  0
 10 15  4  0  0  0  0
 15 16  1  0  0  0  0
 16 17  1  0  0  0  0
 17 18  4  0  0  0  0
 18 19  4  0  0  0  0
 19 20  4  0  0  0  0
 20 21  4  0  0  0  0
 21 22  4  0  0  0  0
 17 22  4  0  0  0  0
 21 23  1  0  0  0  0
 23 24  1  0  0  0  0
 23 25  1  0  0  0  0
 23 26  1  0  0  0  0
M  END

> <ChembankId>
3069806

> <SMILES>
OCCOCCOC(=O)c1ccccc1Nc2cccc(c2)C(F)(F)F

> <InChI>
1/C18H18F3NO4/c19-18(20,21)13-4-3-5-14(12-13)22-16-7-2-1-6-15(16)17(24)26-11-10-25-9-8-23/h1-7,12,22-23H,8-11H2

$$$$
1022844
  Marvin  11101114202D          

 12 12  0  0  0  0            999 V2000
    2.1434   -0.4125    0.0000 O   0  0  0  0  0  0  0  0  0  0  0  0
    1.4289   -0.0000    0.0000 C   0  0  0  0  0  0  0  0  0  0  0  0
    0.7145   -0.4125    0.0000 C   0  0  0  0  0  0  0  0  0  0  0  0
    0.0000   -0.0000    0.0000 C   0  0  0  0  0  0  0  0  0  0  0  0
    0.0000    0.8250    0.0000 C   0  0  0  0  0  0  0  0  0  0  0  0
   -0.7145    1.2375    0.0000 O   0  0  0  0  0  0  0  0  0  0  0  0
    0.7145    1.2375    0.0000 C   0  0  0  0  0  0  0  0  0  0  0  0
    1.4289    0.8250    0.0000 C   0  0  0  0  0  0  0  0  0  0  0  0
    0.7145    2.0625    0.0000 S   0  0  0  0  0  0  0  0  0  0  0  0
    0.7145    2.8875    0.0000 O   0  0  0  0  0  0  0  0  0  0  0  0
    1.5395    2.0625    0.0000 O   0  0  0  0  0  0  0  0  0  0  0  0
   -0.1105    2.0625    0.0000 O   0  0  0  0  0  0  0  0  0  0  0  0
  1  2  1  0  0  0  0
  2  3  4  0  0  0  0
  3  4  4  0  0  0  0
  4  5  4  0  0  0  0
  5  6  1  0  0  0  0
  5  7  4  0  0  0  0
  7  8  4  0  0  0  0
  2  8  4  0  0  0  0
  7  9  1  0  0  0  0
  9 10  2  0  0  0  0
  9 11  2  0  0  0  0
  9 12  1  0  0  0  0
M  END

> <ChembankId>
1022844

> <SMILES>
Oc1ccc(O)c(c1)S(=O)(=O)O

> <InChI>
1/C6H6O5S/c7-4-1-2-5(8)6(3-4)12(9,10)11/h1-3,7-8H,(H,9,10,11)

$$$$
1077199
  Marvin  11101114202D          

 15 16  0  0  0  0            999 V2000
    1.6402   -1.1171    0.0000 C   0  0  0  0  0  0  0  0  0  0  0  0
    0.8277   -0.9738    0.0000 C   0  0  0  0  0  0  0  0  0  0  0  0
    0.5455   -0.1986    0.0000 N   0  0  0  0  0  0  0  0  0  0  0  0
   -0.2669   -0.0553    0.0000 C   0  0  0  0  0  0  0  0  0  0  0  0
   -1.0794   -0.1986    0.0000 C   0  0  0  0  0  0  0  0  0  0  0  0
   -1.6097    0.4334    0.0000 C   0  0  0  0  0  0  0  0  0  0  0  0
   -1.3275    1.2087    0.0000 C   0  0  0  0  0  0  0  0  0  0  0  0
   -0.5151    1.3519    0.0000 C   0  0  0  0  0  0  0  0  0  0  0  0
    0.0152    0.7199    0.0000 C   0  0  0  0  0  0  0  0  0  0  0  0
    0.8277    0.8632    0.0000 O   0  0  0  0  0  0  0  0  0  0  0  0
   -0.2669   -0.8803    0.0000 C   0  0  0  0  0  0  0  0  0  0  0  0
    0.4005   -1.3652    0.0000 C   0  0  0  0  0  0  0  0  0  0  0  0
    0.1456   -2.1498    0.0000 C   0  0  0  0  0  0  0  0  0  0  0  0
   -0.6794   -2.1498    0.0000 C   0  0  0  0  0  0  0  0  0  0  0  0
   -0.9344   -1.3652    0.0000 S   0  0  0  0  0  0  0  0  0  0  0  0
  1  2  1  0  0  0  0
  2  3  1  0  0  0  0
  3  4  1  0  0  0  0
  4  5  1  0  0  0  0
  5  6  1  0  0  0  0
  6  7  1  0  0  0  0
  7  8  1  0  0  0  0
  8  9  1  0  0  0  0
  4  9  1  0  0  0  0
  9 10  2  0  0  0  0
  4 11  1  0  0  0  0
 11 12  4  0  0  0  0
 12 13  4  0  0  0  0
 13 14  4  0  0  0  0
 14 15  4  0  0  0  0
 11 15  4  0  0  0  0
M  END

> <ChembankId>
1077199

> <SMILES>
CCNC1(CCCCC1=O)c2cccs2

> <InChI>
1/C12H17NOS/c1-2-13-12(11-7-5-9-15-11)8-4-3-6-10(12)14/h5,7,9,13H,2-4,6,8H2,1H3

$$$$
3069807
  Marvin  11101114202D          

 24 22  0  0  0  0            999 V2000
   -2.5721    0.0000    0.0000 C   0  0  0  0  0  0  0  0  0  0  0  0
   -1.8576    0.4125    0.0000 N   0  0  0  0  0  0  0  0  0  0  0  0
   -1.1432    0.0000    0.0000 C   0  0  0  0  0  0  0  0  0  0  0  0
   -1.1432   -0.8250    0.0000 C   0  0  0  0  0  0  0  0  0  0  0  0
   -0.4287    0.4125    0.0000 C   0  0  0  0  0  0  0  0  0  0  0  0
    0.2858    0.0000    0.0000 C   0  0  0  0  0  0  0  0  0  0  0  0
    1.0003    0.4125    0.0000 C   0  0  0  0  0  0  0  0  0  0  0  0
    1.7147   -0.0000    0.0000 C   0  0  0  0  0  0  0  0  0  0  0  0
    2.4292    0.4125    0.0000 C   0  0  0  0  0  0  0  0  0  0  0  0
    1.7147   -0.8250    0.0000 C   0  0  0  0  0  0  0  0  0  0  0  0
    7.2907   -1.0312    0.0000 O   0  0  0  0  0  0  0  0  0  0  0  0
    7.2907   -0.2062    0.0000 C   0  0  0  0  0  0  0  0  0  0  0  0
    6.5762    0.2063    0.0000 C   0  0  0  0  0  0  0  0  0  0  0  0
    6.5762    1.0313    0.0000 O   0  0  0  0  0  0  0  0  0  0  0  0
    5.8617   -0.2062    0.0000 C   0  0  0  0  0  0  0  0  0  0  0  0
    5.8617   -1.0312    0.0000 O   0  0  0  0  0  0  0  0  0  0  0  0
    5.1472    0.2063    0.0000 C   0  0  0  0  0  0  0  0  0  0  0  0
    4.4328   -0.2062    0.0000 O   0  0  0  0  0  0  0  0  0  0  0  0
    5.1472    1.0313    0.0000 O   0  0  0  0  0  0  0  0  0  0  0  0
    8.0051    0.2063    0.0000 C   0  0  0  0  0  0  0  0  0  0  0  0
    8.0051    1.0313    0.0000 O   0  0  0  0  0  0  0  0  0  0  0  0
    8.7196   -0.2063    0.0000 C   0  0  0  0  0  0  0  0  0  0  0  0
    9.4341    0.2062    0.0000 O   0  0  0  0  0  0  0  0  0  0  0  0
    8.7196   -1.0313    0.0000 O   0  0  0  0  0  0  0  0  0  0  0  0
  1  2  1  0  0  0  0
  2  3  1  0  0  0  0
  3  4  1  0  0  0  0
  3  5  1  0  0  0  0
  5  6  1  0  0  0  0
  6  7  1  0  0  0  0
  7  8  2  0  0  0  0
  8  9  1  0  0  0  0
  8 10  1  0  0  0  0
 11 12  1  0  0  0  0
 12 13  1  0  0  0  0
 13 14  1  0  0  0  0
 13 15  1  0  0  0  0
 15 16  1  0  0  0  0
 15 17  1  0  0  0  0
 17 18  2  0  0  0  0
 17 19  1  0  0  0  0
 12 20  1  0  0  0  0
 20 21  1  0  0  0  0
 20 22  1  0  0  0  0
 22 23  2  0  0  0  0
 22 24  1  0  0  0  0
M  END

> <ChembankId>
3069807

> <SMILES>
CNC(C)CCC=C(C)C.OC(C(O)C(O)C(=O)O)C(O)C(=O)O

> <InChI>
1/C9H19N.C6H10O8/c1-8(2)6-5-7-9(3)10-4;7-1(3(9)5(11)12)2(8)4(10)6(13)14/h6,9-10H,5,7H2,1-4H3;1-4,7-10H,(H,11,12)(H,13,14)

$$$$
3188151
  Marvin  11101114202D          

 19 20  0  0  0  0            999 V2000
    2.7512    0.7634    0.0000 C   0  0  0  0  0  0  0  0  0  0  0  0
    3.4656    1.1759    0.0000 C   0  0  0  0  0  0  0  0  0  0  0  0
    3.4656    2.0009    0.0000 C   0  0  0  0  0  0  0  0  0  0  0  0
    4.1801    2.4134    0.0000 S   0  0  0  0  0  0  0  0  0  0  0  0
    3.6498    3.0454    0.0000 O   0  0  0  0  0  0  0  0  0  0  0  0
    4.7104    3.0454    0.0000 O   0  0  0  0  0  0  0  0  0  0  0  0
    4.8946    2.0009    0.0000 C   0  0  0  0  0  0  0  0  0  0  0  0
    4.8946    1.1759    0.0000 C   0  0  0  0  0  0  0  0  0  0  0  0
    4.1801    0.7634    0.0000 N   0  0  0  0  0  0  0  0  0  0  0  0
    4.1801   -0.0616    0.0000 N   0  0  0  0  0  0  0  0  0  0  0  0
    3.4656   -0.4741    0.0000 C   0  0  0  0  0  0  0  0  0  0  0  0
    3.4656   -1.2991    0.0000 C   0  0  0  0  0  0  0  0  0  0  0  0
    4.1331   -1.7840    0.0000 C   0  0  0  0  0  0  0  0  0  0  0  0
    3.8781   -2.5687    0.0000 C   0  0  0  0  0  0  0  0  0  0  0  0
    3.0531   -2.5687    0.0000 C   0  0  0  0  0  0  0  0  0  0  0  0
    2.7982   -1.7840    0.0000 O   0  0  0  0  0  0  0  0  0  0  0  0
    2.5682   -3.2361    0.0000 N   0  3  0  0  0  0  0  0  0  0  0  0
    2.9038   -3.9898    0.0000 O   0  0  0  0  0  0  0  0  0  0  0  0
    1.7477   -3.1499    0.0000 O   0  5  0  0  0  0  0  0  0  0  0  0
  1  2  1  0  0  0  0
  2  3  1  0  0  0  0
  3  4  1  0  0  0  0
  4  5  2  0  0  0  0
  4  6  2  0  0  0  0
  4  7  1  0  0  0  0
  7  8  1  0  0  0  0
  8  9  1  0  0  0  0
  2  9  1  0  0  0  0
  9 10  1  0  0  0  0
 10 11  2  0  0  0  0
 11 12  1  0  0  0  0
 12 13  4  0  0  0  0
 13 14  4  0  0  0  0
 14 15  4  0  0  0  0
 15 16  4  0  0  0  0
 12 16  4  0  0  0  0
 15 17  1  0  0  0  0
 17 18  2  0  0  0  0
 17 19  1  0  0  0  0
M  CHG  2  17   1  19  -1
M  END

> <ChembankId>
3188151

> <SMILES>
CC1CS(=O)(=O)CCN1/N=C/c2ccc(o2)[N+](=O)[O-]

> <InChI>
1/C10H13N3O5S/c1-8-7-19(16,17)5-4-12(8)11-6-9-2-3-10(18-9)13(14)15/h2-3,6,8H,4-5,7H2,1H3

$$$$
3069809
  Marvin  11101114202D          

 19 19  0  0  0  0            999 V2000
   -4.9386   -0.7837    0.0000 C   0  0  0  0  0  0  0  0  0  0  0  0
   -4.2241   -0.3712    0.0000 C   0  0  0  0  0  0  0  0  0  0  0  0
   -3.5097   -0.7837    0.0000 C   0  0  0  0  0  0  0  0  0  0  0  0
   -2.7952   -0.3712    0.0000 N   0  0  0  0  0  0  0  0  0  0  0  0
   -2.0807   -0.7837    0.0000 C   0  0  0  0  0  0  0  0  0  0  0  0
   -2.0807   -1.6087    0.0000 C   0  0  0  0  0  0  0  0  0  0  0  0
   -1.3663   -0.3712    0.0000 C   0  0  0  0  0  0  0  0  0  0  0  0
   -1.3663    0.4538    0.0000 O   0  0  0  0  0  0  0  0  0  0  0  0
   -0.6518   -0.7837    0.0000 N   0  0  0  0  0  0  0  0  0  0  0  0
    0.0627   -0.3712    0.0000 C   0  0  0  0  0  0  0  0  0  0  0  0
    0.1489    0.4493    0.0000 C   0  0  0  0  0  0  0  0  0  0  0  0
   -0.4642    1.0014    0.0000 C   0  0  0  0  0  0  0  0  0  0  0  0
    0.9559    0.6209    0.0000 C   0  0  0  0  0  0  0  0  0  0  0  0
    1.3684   -0.0936    0.0000 S   0  0  0  0  0  0  0  0  0  0  0  0
    0.8164   -0.7067    0.0000 C   0  0  0  0  0  0  0  0  0  0  0  0
    0.9879   -1.5137    0.0000 C   0  0  0  0  0  0  0  0  0  0  0  0
    0.3748   -2.0657    0.0000 O   0  0  0  0  0  0  0  0  0  0  0  0
    1.7725   -1.7686    0.0000 O   0  0  0  0  0  0  0  0  0  0  0  0
    2.3856   -1.2166    0.0000 C   0  0  0  0  0  0  0  0  0  0  0  0
  1  2  1  0  0  0  0
  2  3  1  0  0  0  0
  3  4  1  0  0  0  0
  4  5  1  0  0  0  0
  5  6  1  0  0  0  0
  5  7  1  0  0  0  0
  7  8  2  0  0  0  0
  7  9  1  0  0  0  0
  9 10  1  0  0  0  0
 10 11  4  0  0  0  0
 11 12  1  0  0  0  0
 11 13  4  0  0  0  0
 13 14  4  0  0  0  0
 14 15  4  0  0  0  0
 10 15  4  0  0  0  0
 15 16  1  0  0  0  0
 16 17  2  0  0  0  0
 16 18  1  0  0  0  0
 18 19  1  0  0  0  0
M  END

> <ChembankId>
3069809

> <SMILES>
CCCNC(C)C(=O)Nc1c(C)csc1C(=O)OC

> <InChI>
1/C13H20N2O3S/c1-5-6-14-9(3)12(16)15-10-8(2)7-19-11(10)13(17)18-4/h7,9,14H,5-6H2,1-4H3,(H,15,16)

$$$$
3188154
  Marvin  11101114202D          

 27 30  0  0  1  0            999 V2000
    0.3804   -1.5185    0.0000 C   0  0  0  0  0  0  0  0  0  0  0  0
    0.9122   -2.1492    0.0000 C   0  0  0  0  0  0  0  0  0  0  0  0
    0.6319   -2.9251    0.0000 O   0  0  0  0  0  0  0  0  0  0  0  0
    1.7243   -2.0040    0.0000 C   0  0  0  0  0  0  0  0  0  0  0  0
    2.2561   -2.6347    0.0000 C   0  0  0  0  0  0  0  0  0  0  0  0
    1.9758   -3.4106    0.0000 O   0  0  0  0  0  0  0  0  0  0  0  0
    3.0683   -2.4895    0.0000 C   0  0  1  0  0  0  0  0  0  0  0  0
    3.1278   -3.3123    0.0000 O   0  0  0  0  0  0  0  0  0  0  0  0
    2.8390   -1.6970    0.0000 C   0  0  0  0  0  0  0  0  0  0  0  0
    3.5218   -1.2340    0.0000 C   0  0  0  0  0  0  0  0  0  0  0  0
    4.1731   -1.7404    0.0000 C   0  0  1  0  0  0  0  0  0  0  0  0
    4.9853   -1.5952    0.0000 C   0  0  2  0  0  0  0  0  0  0  0  0
    5.2655   -0.8192    0.0000 C   0  0  0  0  0  0  0  0  0  0  0  0
    6.0777   -0.6740    0.0000 C   0  0  0  0  0  0  0  0  0  0  0  0
    6.3580    0.1019    0.0000 C   0  0  0  0  0  0  0  0  0  0  0  0
    6.6095   -1.3047    0.0000 C   0  0  0  0  0  0  0  0  0  0  0  0
    7.4216   -1.1595    0.0000 C   0  0  0  0  0  0  0  0  0  0  0  0
    7.9534   -1.7902    0.0000 C   0  0  0  0  0  0  0  0  0  0  0  0
    8.7655   -1.6450    0.0000 O   0  0  0  0  0  0  0  0  0  0  0  0
    7.6731   -2.5662    0.0000 C   0  0  0  0  0  0  0  0  0  0  0  0
    6.8610   -2.7114    0.0000 C   0  0  0  0  0  0  0  0  0  0  0  0
    6.3292   -2.0807    0.0000 C   0  0  2  0  0  0  0  0  0  0  0  0
    5.5171   -2.2259    0.0000 C   0  0  1  0  0  0  0  0  0  0  0  0
    5.2368   -3.0018    0.0000 C   0  0  0  0  0  0  0  0  0  0  0  0
    4.4247   -3.1470    0.0000 C   0  0  0  0  0  0  0  0  0  0  0  0
    3.8928   -2.5163    0.0000 C   0  0  2  0  0  0  0  0  0  0  0  0
    3.5330   -3.2587    0.0000 C   0  0  0  0  0  0  0  0  0  0  0  0
  1  2  1  0  0  0  0
  2  3  2  0  0  0  0
  2  4  1  0  0  0  0
  4  5  1  0  0  0  0
  5  6  2  0  0  0  0
  7  5  1  1  0  0  0
  7  8  1  6  0  0  0
  7  9  1  0  0  0  0
  9 10  1  0  0  0  0
 11 10  1  1  0  0  0
 11 12  1  0  0  0  0
 12 13  1  6  0  0  0
 13 14  2  0  0  0  0
 14 15  1  0  0  0  0
 14 16  1  0  0  0  0
 16 17  2  0  0  0  0
 17 18  1  0  0  0  0
 18 19  2  0  0  0  0
 18 20  1  0  0  0  0
 20 21  1  0  0  0  0
 21 22  1  0  0  0  0
 22 16  1  6  0  0  0
 22 23  1  0  0  0  0
 12 23  1  0  0  0  0
 23 24  1  1  0  0  0
 24 25  1  0  0  0  0
 25 26  1  0  0  0  0
 11 26  1  0  0  0  0
  7 26  1  0  0  0  0
 26 27  1  1  0  0  0
M  END

> <ChembankId>
3188154

> <SMILES>
CC(=O)CC(=O)[C@@]1(O)CC[C@H]2[C@@H]3C=C(C)C4=CC(=O)CC[C@@H]4[C@H]3CC[C@@]21C

> <InChI>
1/C23H30O4/c1-13-10-19-17(16-5-4-15(25)12-18(13)16)6-8-22(3)20(19)7-9-23(22,27)21(26)11-14(2)24/h10,12,16-17,19-20,27H,4-9,11H2,1-3H3/t16-,17-,19+,20+,22+,23+/m1/s1

$$$$
3069810
  Marvin  11101114202D          

 17 17  0  0  1  0            999 V2000
    2.1434    2.0625    0.0000 C   0  0  0  0  0  0  0  0  0  0  0  0
    2.1434    1.2375    0.0000 O   0  0  0  0  0  0  0  0  0  0  0  0
    1.4289    0.8250    0.0000 C   0  0  0  0  0  0  0  0  0  0  0  0
    1.4289   -0.0000    0.0000 C   0  0  0  0  0  0  0  0  0  0  0  0
    0.7145   -0.4125    0.0000 C   0  0  0  0  0  0  0  0  0  0  0  0
    0.0000    0.0000    0.0000 C   0  0  0  0  0  0  0  0  0  0  0  0
   -0.7145   -0.4125    0.0000 C   0  0  0  0  0  0  0  0  0  0  0  0
   -1.4289    0.0000    0.0000 C   0  0  2  0  0  0  0  0  0  0  0  0
   -1.0164    0.7145    0.0000 C   0  0  0  0  0  0  0  0  0  0  0  0
   -1.8414   -0.7145    0.0000 N   0  0  0  0  0  0  0  0  0  0  0  0
   -2.1434    0.4125    0.0000 C   0  0  0  0  0  0  0  0  0  0  0  0
   -2.8579    0.0000    0.0000 O   0  0  0  0  0  0  0  0  0  0  0  0
   -2.1434    1.2375    0.0000 O   0  0  0  0  0  0  0  0  0  0  0  0
    0.0000    0.8250    0.0000 C   0  0  0  0  0  0  0  0  0  0  0  0
    0.7145    1.2375    0.0000 C   0  0  0  0  0  0  0  0  0  0  0  0
    0.7145    2.0625    0.0000 O   0  0  0  0  0  0  0  0  0  0  0  0
    1.4289    2.4750    0.0000 C   0  0  0  0  0  0  0  0  0  0  0  0
  1  2  1  0  0  0  0
  2  3  1  0  0  0  0
  3  4  4  0  0  0  0
  4  5  4  0  0  0  0
  5  6  4  0  0  0  0
  6  7  1  0  0  0  0
  7  8  1  0  0  0  0
  8  9  1  1  0  0  0
  8 10  1  1  0  0  0
  8 11  1  0  0  0  0
 11 12  2  0  0  0  0
 11 13  1  0  0  0  0
  6 14  4  0  0  0  0
 14 15  4  0  0  0  0
  3 15  4  0  0  0  0
 15 16  1  0  0  0  0
 16 17  1  0  0  0  0
M  END

> <ChembankId>
3069810

> <SMILES>
COc1ccc(C[C@](C)(N)C(=O)O)cc1OC

> <InChI>
1/C12H17NO4/c1-12(13,11(14)15)7-8-4-5-9(16-2)10(6-8)17-3/h4-6H,7,13H2,1-3H3,(H,14,15)

$$$$
3188158
  Marvin  11101114202D          

 35 38  0  0  1  0            999 V2000
    5.7896   -4.7031    0.0000 C   0  0  0  0  0  0  0  0  0  0  0  0
    6.1251   -3.9494    0.0000 C   0  0  0  0  0  0  0  0  0  0  0  0
    5.6402   -3.2820    0.0000 O   0  0  0  0  0  0  0  0  0  0  0  0
    5.9758   -2.5283    0.0000 C   0  0  0  0  0  0  0  0  0  0  0  0
    6.7963   -2.4421    0.0000 O   0  0  0  0  0  0  0  0  0  0  0  0
    5.4909   -1.8609    0.0000 O   0  0  0  0  0  0  0  0  0  0  0  0
    4.6704   -1.9471    0.0000 C   0  0  2  0  0  0  0  0  0  0  0  0
    4.8419   -2.7541    0.0000 C   0  0  0  0  0  0  0  0  0  0  0  0
    4.1274   -3.1666    0.0000 C   0  0  0  0  0  0  0  0  0  0  0  0
    3.5143   -2.6145    0.0000 C   0  0  1  0  0  0  0  0  0  0  0  0
    2.6939   -2.7008    0.0000 C   0  0  2  0  0  0  0  0  0  0  0  0
    2.3583   -3.4544    0.0000 C   0  0  0  0  0  0  0  0  0  0  0  0
    1.5378   -3.5407    0.0000 C   0  0  0  0  0  0  0  0  0  0  0  0
    1.0529   -2.8732    0.0000 C   0  0  0  0  0  0  0  0  0  0  0  0
    0.2324   -2.9595    0.0000 C   0  0  0  0  0  0  0  0  0  0  0  0
   -0.2525   -2.2920    0.0000 C   0  0  0  0  0  0  0  0  0  0  0  0
   -1.0730   -2.3783    0.0000 O   0  0  0  0  0  0  0  0  0  0  0  0
    0.0830   -1.5384    0.0000 C   0  0  0  0  0  0  0  0  0  0  0  0
    0.9035   -1.4521    0.0000 C   0  0  0  0  0  0  0  0  0  0  0  0
    1.3884   -2.1196    0.0000 C   0  0  1  0  0  0  0  0  0  0  0  0
    1.7240   -1.3659    0.0000 C   0  0  0  0  0  0  0  0  0  0  0  0
    2.2089   -2.0333    0.0000 C   0  0  0  0  0  0  0  0  0  0  0  0
    2.5445   -1.2797    0.0000 C   0  0  1  0  0  0  0  0  0  0  0  0
    2.0596   -0.6122    0.0000 O   0  0  0  0  0  0  0  0  0  0  0  0
    3.3650   -1.1934    0.0000 C   0  0  0  0  0  0  0  0  0  0  0  0
    3.8499   -1.8609    0.0000 C   0  0  2  0  0  0  0  0  0  0  0  0
    4.2624   -1.1464    0.0000 C   0  0  0  0  0  0  0  0  0  0  0  0
    4.6704   -1.1221    0.0000 C   0  0  0  0  0  0  0  0  0  0  0  0
    3.9559   -0.7096    0.0000 O   0  0  0  0  0  0  0  0  0  0  0  0
    5.3848   -0.7096    0.0000 C   0  0  0  0  0  0  0  0  0  0  0  0
    6.0993   -1.1221    0.0000 O   0  0  0  0  0  0  0  0  0  0  0  0
    6.8138   -0.7096    0.0000 C   0  0  0  0  0  0  0  0  0  0  0  0
    6.8138    0.1154    0.0000 O   0  0  0  0  0  0  0  0  0  0  0  0
    7.5283   -1.1221    0.0000 C   0  0  0  0  0  0  0  0  0  0  0  0
    8.2427   -0.7096    0.0000 C   0  0  0  0  0  0  0  0  0  0  0  0
  1  2  1  0  0  0  0
  2  3  1  0  0  0  0
  3  4  1  0  0  0  0
  4  5  2  0  0  0  0
  4  6  1  0  0  0  0
  7  6  1  6  0  0  0
  7  8  1  0  0  0  0
  8  9  1  0  0  0  0
 10  9  1  1  0  0  0
 10 11  1  0  0  0  0
 11 12  1  6  0  0  0
 12 13  1  0  0  0  0
 13 14  1  0  0  0  0
 14 15  2  0  0  0  0
 15 16  1  0  0  0  0
 16 17  2  0  0  0  0
 16 18  1  0  0  0  0
 18 19  2  0  0  0  0
 19 20  1  0  0  0  0
 14 20  1  0  0  0  0
 20 21  1  1  0  0  0
 20 22  1  0  0  0  0
 11 22  1  0  0  0  0
 22 23  1  0  0  0  0
 23 24  1  1  0  0  0
 23 25  1  0  0  0  0
 25 26  1  0  0  0  0
 10 26  1  0  0  0  0
  7 26  1  0  0  0  0
 26 27  1  1  0  0  0
  7 28  1  1  0  0  0
 28 29  2  0  0  0  0
 28 30  1  0  0  0  0
 30 31  1  0  0  0  0
 31 32  1  0  0  0  0
 32 33  2  0  0  0  0
 32 34  1  0  0  0  0
 34 35  1  0  0  0  0
M  END

> <ChembankId>
3188158

> <SMILES>
CCOC(=O)O[C@@]1(CC[C@H]2[C@@H]3CCC4=CC(=O)C=C[C@]4(C)[C@H]3[C@@H](O)C[C@@]21C)C(=O)COC(=O)CC

> <InChI>
1/C27H36O8/c1-5-22(31)34-15-21(30)27(35-24(32)33-6-2)12-10-19-18-8-7-16-13-17(28)9-11-25(16,3)23(18)20(29)14-26(19,27)4/h9,11,13,18-20,23,29H,5-8,10,12,14-15H2,1-4H3

$$$$
3069813
  Marvin  11101114202D          

 27 30  0  0  0  0            999 V2000
   -3.4060   -3.7923    0.0000 Cl  0  0  0  0  0  0  0  0  0  0  0  0
   -2.5990   -3.6207    0.0000 C   0  0  0  0  0  0  0  0  0  0  0  0
   -2.0470   -4.2338    0.0000 C   0  0  0  0  0  0  0  0  0  0  0  0
   -1.2400   -4.0623    0.0000 C   0  0  0  0  0  0  0  0  0  0  0  0
   -0.9851   -3.2777    0.0000 C   0  0  0  0  0  0  0  0  0  0  0  0
   -0.1781   -3.1062    0.0000 C   0  0  0  0  0  0  0  0  0  0  0  0
    0.3739   -3.7192    0.0000 C   0  0  0  0  0  0  0  0  0  0  0  0
    0.1190   -4.5039    0.0000 N   0  0  0  0  0  0  0  0  0  0  0  0
    0.6039   -5.1713    0.0000 C   0  0  0  0  0  0  0  0  0  0  0  0
    0.1190   -5.8387    0.0000 C   0  0  0  0  0  0  0  0  0  0  0  0
   -0.6657   -5.5838    0.0000 N   0  0  0  0  0  0  0  0  0  0  0  0
   -0.6657   -4.7588    0.0000 C   0  0  0  0  0  0  0  0  0  0  0  0
    0.0768   -2.3215    0.0000 O   0  0  0  0  0  0  0  0  0  0  0  0
    0.8838   -2.1500    0.0000 C   0  0  0  0  0  0  0  0  0  0  0  0
    1.1387   -1.3654    0.0000 C   0  0  0  0  0  0  0  0  0  0  0  0
    0.6538   -0.6979    0.0000 C   0  0  0  0  0  0  0  0  0  0  0  0
    1.1387   -0.0305    0.0000 S   0  0  0  0  0  0  0  0  0  0  0  0
    1.9233   -0.2854    0.0000 C   0  0  0  0  0  0  0  0  0  0  0  0
    2.6378    0.1271    0.0000 C   0  0  0  0  0  0  0  0  0  0  0  0
    2.6378    0.9521    0.0000 Cl  0  0  0  0  0  0  0  0  0  0  0  0
    3.3523   -0.2854    0.0000 C   0  0  0  0  0  0  0  0  0  0  0  0
    3.3523   -1.1104    0.0000 C   0  0  0  0  0  0  0  0  0  0  0  0
    2.6378   -1.5229    0.0000 C   0  0  0  0  0  0  0  0  0  0  0  0
    1.9233   -1.1104    0.0000 C   0  0  0  0  0  0  0  0  0  0  0  0
   -1.5371   -2.6646    0.0000 C   0  0  0  0  0  0  0  0  0  0  0  0
   -1.2822   -1.8800    0.0000 Cl  0  0  0  0  0  0  0  0  0  0  0  0
   -2.3441   -2.8361    0.0000 C   0  0  0  0  0  0  0  0  0  0  0  0
  1  2  1  0  0  0  0
  2  3  4  0  0  0  0
  3  4  4  0  0  0  0
  4  5  4  0  0  0  0
  5  6  1  0  0  0  0
  6  7  1  0  0  0  0
  7  8  1  0  0  0  0
  8  9  4  0  0  0  0
  9 10  4  0  0  0  0
 10 11  4  0  0  0  0
 11 12  4  0  0  0  0
  8 12  4  0  0  0  0
  6 13  1  0  0  0  0
 13 14  1  0  0  0  0
 14 15  1  0  0  0  0
 15 16  4  0  0  0  0
 16 17  4  0  0  0  0
 17 18  4  0  0  0  0
 18 19  4  0  0  0  0
 19 20  1  0  0  0  0
 19 21  4  0  0  0  0
 21 22  4  0  0  0  0
 22 23  4  0  0  0  0
 23 24  4  0  0  0  0
 15 24  4  0  0  0  0
 18 24  4  0  0  0  0
  5 25  4  0  0  0  0
 25 26  1  0  0  0  0
 25 27  4  0  0  0  0
  2 27  4  0  0  0  0
M  END

> <ChembankId>
3069813

> <SMILES>
Clc1ccc(C(Cn2ccnc2)OCc3csc4c(Cl)cccc34)c(Cl)c1

> <InChI>
1/C20H15Cl3N2OS/c21-14-4-5-16(18(23)8-14)19(9-25-7-6-24-12-25)26-10-13-11-27-20-15(13)2-1-3-17(20)22/h1-8,11-12,19H,9-10H2

$$$$
3168
  Marvin  11101114202D          

 25 27  0  0  0  0            999 V2000
    3.4656    0.3509    0.0000 N   0  0  0  0  0  0  0  0  0  0  0  0
    2.7512   -0.0616    0.0000 S   0  0  0  0  0  0  0  0  0  0  0  0
    3.1637   -0.7761    0.0000 O   0  0  0  0  0  0  0  0  0  0  0  0
    2.3387    0.6529    0.0000 O   0  0  0  0  0  0  0  0  0  0  0  0
    2.0367   -0.4741    0.0000 C   0  0  0  0  0  0  0  0  0  0  0  0
    1.3222   -0.0616    0.0000 C   0  0  0  0  0  0  0  0  0  0  0  0
    0.6078   -0.4741    0.0000 C   0  0  0  0  0  0  0  0  0  0  0  0
    0.6078   -1.2991    0.0000 C   0  0  0  0  0  0  0  0  0  0  0  0
    1.3222   -1.7116    0.0000 C   0  0  0  0  0  0  0  0  0  0  0  0
    1.3222   -2.5366    0.0000 N   0  0  0  0  0  0  0  0  0  0  0  0
    1.9897   -3.0215    0.0000 C   0  0  0  0  0  0  0  0  0  0  0  0
    1.7347   -3.8062    0.0000 C   0  0  0  0  0  0  0  0  0  0  0  0
    0.9097   -3.8062    0.0000 C   0  0  0  0  0  0  0  0  0  0  0  0
    0.6548   -3.0215    0.0000 C   0  0  0  0  0  0  0  0  0  0  0  0
    2.0367   -1.2991    0.0000 C   0  0  0  0  0  0  0  0  0  0  0  0
    2.7512   -1.7116    0.0000 O   0  0  0  0  0  0  0  0  0  0  0  0
    3.4656   -1.2991    0.0000 C   0  0  0  0  0  0  0  0  0  0  0  0
    3.4656   -0.4741    0.0000 C   0  0  0  0  0  0  0  0  0  0  0  0
    4.1801   -0.0616    0.0000 C   0  0  0  0  0  0  0  0  0  0  0  0
    4.8946   -0.4741    0.0000 C   0  0  0  0  0  0  0  0  0  0  0  0
    4.8946   -1.2991    0.0000 C   0  0  0  0  0  0  0  0  0  0  0  0
    4.1801   -1.7116    0.0000 C   0  0  0  0  0  0  0  0  0  0  0  0
   -0.1067   -0.0616    0.0000 C   0  0  0  0  0  0  0  0  0  0  0  0
   -0.1067    0.7634    0.0000 O   0  0  0  0  0  0  0  0  0  0  0  0
   -0.8212   -0.4741    0.0000 O   0  0  0  0  0  0  0  0  0  0  0  0
  1  2  1  0  0  0  0
  2  3  2  0  0  0  0
  2  4  2  0  0  0  0
  2  5  1  0  0  0  0
  5  6  4  0  0  0  0
  6  7  4  0  0  0  0
  7  8  4  0  0  0  0
  8  9  4  0  0  0  0
  9 10  1  0  0  0  0
 10 11  1  0  0  0  0
 11 12  1  0  0  0  0
 12 13  1  0  0  0  0
 13 14  1  0  0  0  0
 10 14  1  0  0  0  0
  9 15  4  0  0  0  0
  5 15  4  0  0  0  0
 15 16  1  0  0  0  0
 16 17  1  0  0  0  0
 17 18  4  0  0  0  0
 18 19  4  0  0  0  0
 19 20  4  0  0  0  0
 20 21  4  0  0  0  0
 21 22  4  0  0  0  0
 17 22  4  0  0  0  0
  7 23  1  0  0  0  0
 23 24  2  0  0  0  0
 23 25  1  0  0  0  0
M  END

> <ChembankId>
3168

> <SMILES>
NS(=O)(=O)c1cc(cc(N2CCCC2)c1Oc3ccccc3)C(=O)O

> <InChI>
1/C17H18N2O5S/c18-25(22,23)15-11-12(17(20)21)10-14(19-8-4-5-9-19)16(15)24-13-6-2-1-3-7-13/h1-3,6-7,10-11H,4-5,8-9H2,(H,20,21)(H2,18,22,23)

$$$$
3188161
  Marvin  11101114202D          

 30 32  0  0  1  0            999 V2000
   -1.6223   -8.8956    0.0000 C   0  0  0  0  0  0  0  0  0  0  0  0
   -0.9079   -8.4831    0.0000 C   0  0  0  0  0  0  0  0  0  0  0  0
   -0.4954   -9.1976    0.0000 C   0  0  0  0  0  0  0  0  0  0  0  0
   -1.3204   -7.7687    0.0000 C   0  0  0  0  0  0  0  0  0  0  0  0
   -0.1934   -8.0706    0.0000 C   0  0  0  0  0  0  0  0  0  0  0  0
   -0.1934   -7.2456    0.0000 O   0  0  0  0  0  0  0  0  0  0  0  0
    0.5211   -8.4831    0.0000 O   0  0  0  0  0  0  0  0  0  0  0  0
    1.2356   -8.0706    0.0000 C   0  0  0  0  0  0  0  0  0  0  0  0
    1.9500   -8.4831    0.0000 O   0  0  0  0  0  0  0  0  0  0  0  0
    2.6645   -8.0706    0.0000 C   0  0  0  0  0  0  0  0  0  0  0  0
    2.6645   -7.2456    0.0000 O   0  0  0  0  0  0  0  0  0  0  0  0
    3.3790   -8.4831    0.0000 C   0  0  2  0  0  0  0  0  0  0  0  0
    4.1326   -8.1476    0.0000 N   0  0  0  0  0  0  0  0  0  0  0  0
    4.6847   -8.7607    0.0000 C   0  0  2  0  0  0  0  0  0  0  0  0
    4.2722   -9.4751    0.0000 S   0  0  0  0  0  0  0  0  0  0  0  0
    3.4652   -9.3036    0.0000 C   0  0  0  0  0  0  0  0  0  0  0  0
    3.2021  -10.0855    0.0000 C   0  0  0  0  0  0  0  0  0  0  0  0
    2.6601   -9.4836    0.0000 C   0  0  0  0  0  0  0  0  0  0  0  0
    5.2978   -8.2086    0.0000 C   0  0  2  0  0  0  0  0  0  0  0  0
    6.1216   -8.2518    0.0000 N   0  0  0  0  0  0  0  0  0  0  0  0
    6.5710   -7.5599    0.0000 C   0  0  0  0  0  0  0  0  0  0  0  0
    7.3948   -7.6031    0.0000 N   0  0  0  0  0  0  0  0  0  0  0  0
    7.7912   -6.8795    0.0000 C   0  0  0  0  0  0  0  0  0  0  0  0
    8.6040   -6.7383    0.0000 C   0  0  0  0  0  0  0  0  0  0  0  0
    9.2212   -7.2857    0.0000 C   0  0  0  0  0  0  0  0  0  0  0  0
    9.1780   -8.1096    0.0000 C   0  0  0  0  0  0  0  0  0  0  0  0
    8.5070   -8.5895    0.0000 C   0  0  0  0  0  0  0  0  0  0  0  0
    7.7134   -8.3641    0.0000 C   0  0  0  0  0  0  0  0  0  0  0  0
    4.7457   -7.5955    0.0000 C   0  0  0  0  0  0  0  0  0  0  0  0
    4.7889   -6.7717    0.0000 O   0  0  0  0  0  0  0  0  0  0  0  0
  1  2  1  0  0  0  0
  2  3  1  0  0  0  0
  2  4  1  0  0  0  0
  2  5  1  0  0  0  0
  5  6  2  0  0  0  0
  5  7  1  0  0  0  0
  7  8  1  0  0  0  0
  8  9  1  0  0  0  0
  9 10  1  0  0  0  0
 10 11  2  0  0  0  0
 12 10  1  6  0  0  0
 12 13  1  0  0  0  0
 14 13  1  1  0  0  0
 14 15  1  0  0  0  0
 15 16  1  0  0  0  0
 12 16  1  0  0  0  0
 16 17  1  0  0  0  0
 16 18  1  0  0  0  0
 14 19  1  0  0  0  0
 19 20  1  1  0  0  0
 20 21  2  0  0  0  0
 21 22  1  0  0  0  0
 22 23  1  0  0  0  0
 23 24  1  0  0  0  0
 24 25  1  0  0  0  0
 25 26  1  0  0  0  0
 26 27  1  0  0  0  0
 27 28  1  0  0  0  0
 22 28  1  0  0  0  0
 19 29  1  0  0  0  0
 13 29  1  0  0  0  0
 29 30  2  0  0  0  0
M  END

> <ChembankId>
3188161

> <SMILES>
CC(C)(C)C(=O)OCOC(=O)[C@@H]1N2[C@H](SC1(C)C)[C@H](/N=C/N3CCCCCC3)C2=O

> <InChI>
1/C21H33N3O5S/c1-20(2,3)19(27)29-13-28-18(26)15-21(4,5)30-17-14(16(25)24(15)17)22-12-23-10-8-6-7-9-11-23/h12,14-15,17H,6-11,13H2,1-5H3

$$$$
2957
  Marvin  11101114202D          

 43 44  0  0  0  0            999 V2000
   -5.0013   -3.7125    0.0000 C   0  0  0  0  0  0  0  0  0  0  0  0
   -4.2868   -3.3000    0.0000 N   0  0  0  0  0  0  0  0  0  0  0  0
   -3.5724   -3.7125    0.0000 C   0  0  0  0  0  0  0  0  0  0  0  0
   -3.5724   -4.5375    0.0000 O   0  0  0  0  0  0  0  0  0  0  0  0
   -2.8579   -3.3000    0.0000 C   0  0  0  0  0  0  0  0  0  0  0  0
   -2.8579   -2.4750    0.0000 C   0  0  0  0  0  0  0  0  0  0  0  0
   -3.5724   -2.0625    0.0000 I   0  0  0  0  0  0  0  0  0  0  0  0
   -2.1434   -2.0625    0.0000 C   0  0  0  0  0  0  0  0  0  0  0  0
   -2.1434   -1.2375    0.0000 N   0  0  0  0  0  0  0  0  0  0  0  0
   -1.4289   -0.8250    0.0000 C   0  0  0  0  0  0  0  0  0  0  0  0
   -2.8579   -0.8250    0.0000 C   0  0  0  0  0  0  0  0  0  0  0  0
   -3.5724   -1.2375    0.0000 O   0  0  0  0  0  0  0  0  0  0  0  0
   -2.8579    0.0000    0.0000 C   0  0  0  0  0  0  0  0  0  0  0  0
   -1.4289   -2.4750    0.0000 C   0  0  0  0  0  0  0  0  0  0  0  0
   -0.7145   -2.0625    0.0000 I   0  0  0  0  0  0  0  0  0  0  0  0
   -1.4289   -3.3000    0.0000 C   0  0  0  0  0  0  0  0  0  0  0  0
   -0.7145   -3.7125    0.0000 C   0  0  0  0  0  0  0  0  0  0  0  0
   -0.7145   -4.5375    0.0000 O   0  0  0  0  0  0  0  0  0  0  0  0
    0.0000   -3.3000    0.0000 N   0  0  0  0  0  0  0  0  0  0  0  0
    0.7145   -3.7125    0.0000 C   0  0  0  0  0  0  0  0  0  0  0  0
    1.4289   -3.3000    0.0000 C   0  0  0  0  0  0  0  0  0  0  0  0
    1.4289   -2.4750    0.0000 O   0  0  0  0  0  0  0  0  0  0  0  0
    2.1434   -3.7125    0.0000 N   0  0  0  0  0  0  0  0  0  0  0  0
    2.8579   -3.3000    0.0000 C   0  0  0  0  0  0  0  0  0  0  0  0
    2.8579   -2.4750    0.0000 C   0  0  0  0  0  0  0  0  0  0  0  0
    2.1434   -2.0625    0.0000 I   0  0  0  0  0  0  0  0  0  0  0  0
    3.5724   -2.0625    0.0000 C   0  0  0  0  0  0  0  0  0  0  0  0
    3.5724   -1.2375    0.0000 C   0  0  0  0  0  0  0  0  0  0  0  0
    4.2868   -0.8250    0.0000 O   0  0  0  0  0  0  0  0  0  0  0  0
    2.8579   -0.8250    0.0000 O   0  0  0  0  0  0  0  0  0  0  0  0
    4.2868   -2.4750    0.0000 C   0  0  0  0  0  0  0  0  0  0  0  0
    5.0013   -2.0625    0.0000 I   0  0  0  0  0  0  0  0  0  0  0  0
    4.2868   -3.3000    0.0000 C   0  0  0  0  0  0  0  0  0  0  0  0
    5.0013   -3.7125    0.0000 C   0  0  0  0  0  0  0  0  0  0  0  0
    5.7158   -3.3000    0.0000 O   0  0  0  0  0  0  0  0  0  0  0  0
    5.0013   -4.5375    0.0000 N   0  0  0  0  0  0  0  0  0  0  0  0
    5.7158   -4.9500    0.0000 C   0  0  0  0  0  0  0  0  0  0  0  0
    5.7158   -5.7750    0.0000 C   0  0  0  0  0  0  0  0  0  0  0  0
    6.4302   -6.1875    0.0000 O   0  0  0  0  0  0  0  0  0  0  0  0
    3.5724   -3.7125    0.0000 C   0  0  0  0  0  0  0  0  0  0  0  0
    3.5724   -4.5375    0.0000 I   0  0  0  0  0  0  0  0  0  0  0  0
   -2.1434   -3.7125    0.0000 C   0  0  0  0  0  0  0  0  0  0  0  0
   -2.1434   -4.5375    0.0000 I   0  0  0  0  0  0  0  0  0  0  0  0
  1  2  1  0  0  0  0
  2  3  1  0  0  0  0
  3  4  2  0  0  0  0
  3  5  1  0  0  0  0
  5  6  4  0  0  0  0
  6  7  1  0  0  0  0
  6  8  4  0  0  0  0
  8  9  1  0  0  0  0
  9 10  1  0  0  0  0
  9 11  1  0  0  0  0
 11 12  2  0  0  0  0
 11 13  1  0  0  0  0
  8 14  4  0  0  0  0
 14 15  1  0  0  0  0
 14 16  4  0  0  0  0
 16 17  1  0  0  0  0
 17 18  2  0  0  0  0
 17 19  1  0  0  0  0
 19 20  1  0  0  0  0
 20 21  1  0  0  0  0
 21 22  2  0  0  0  0
 21 23  1  0  0  0  0
 23 24  1  0  0  0  0
 24 25  4  0  0  0  0
 25 26  1  0  0  0  0
 25 27  4  0  0  0  0
 27 28  1  0  0  0  0
 28 29  2  0  0  0  0
 28 30  1  0  0  0  0
 27 31  4  0  0  0  0
 31 32  1  0  0  0  0
 31 33  4  0  0  0  0
 33 34  1  0  0  0  0
 34 35  2  0  0  0  0
 34 36  1  0  0  0  0
 36 37  1  0  0  0  0
 37 38  1  0  0  0  0
 38 39  1  0  0  0  0
 33 40  4  0  0  0  0
 24 40  4  0  0  0  0
 40 41  1  0  0  0  0
 16 42  4  0  0  0  0
  5 42  4  0  0  0  0
 42 43  1  0  0  0  0
M  END

> <ChembankId>
2957

> <SMILES>
CNC(=O)c1c(I)c(N(C)C(=O)C)c(I)c(C(=O)NCC(=O)Nc2c(I)c(C(=O)O)c(I)c(C(=O)NCCO)c2I)c1I

> <InChI>
1/C24H21I6N5O8/c1-7(37)35(3)20-17(29)10(21(39)31-2)13(25)11(18(20)30)23(41)33-6-8(38)34-19-15(27)9(22(40)32-4-5-36)14(26)12(16(19)28)24(42)43/h36H,4-6H2,1-3H3,(H,31,39)(H,32,40)(H,33,41)(H,34,38)(H,42,43)

$$$$
907413
  Marvin  11101114202D          

 17 17  0  0  0  0            999 V2000
   -2.7671   -3.9974    0.0000 C   0  0  0  0  0  0  0  0  0  0  0  0
   -2.1434   -4.5375    0.0000 C   0  0  0  0  0  0  0  0  0  0  0  0
   -1.3639   -4.2675    0.0000 C   0  0  0  0  0  0  0  0  0  0  0  0
   -0.7402   -4.8075    0.0000 N   0  0  0  0  0  0  0  0  0  0  0  0
    0.0393   -4.5375    0.0000 C   0  0  0  0  0  0  0  0  0  0  0  0
    0.3094   -5.3171    0.0000 C   0  0  0  0  0  0  0  0  0  0  0  0
   -0.2307   -3.7579    0.0000 C   0  0  0  0  0  0  0  0  0  0  0  0
    0.8189   -4.2675    0.0000 C   0  0  0  0  0  0  0  0  0  0  0  0
    1.4425   -4.8075    0.0000 O   0  0  0  0  0  0  0  0  0  0  0  0
    2.2221   -4.5375    0.0000 C   0  0  0  0  0  0  0  0  0  0  0  0
    2.3780   -3.7274    0.0000 O   0  0  0  0  0  0  0  0  0  0  0  0
    2.8457   -5.0776    0.0000 C   0  0  0  0  0  0  0  0  0  0  0  0
    3.6253   -4.8075    0.0000 C   0  0  0  0  0  0  0  0  0  0  0  0
    4.2489   -5.3476    0.0000 C   0  0  0  0  0  0  0  0  0  0  0  0
    4.0930   -6.1578    0.0000 C   0  0  0  0  0  0  0  0  0  0  0  0
    3.3134   -6.4278    0.0000 C   0  0  0  0  0  0  0  0  0  0  0  0
    2.6898   -5.8877    0.0000 C   0  0  0  0  0  0  0  0  0  0  0  0
  1  2  1  0  0  0  0
  2  3  1  0  0  0  0
  3  4  1  0  0  0  0
  4  5  1  0  0  0  0
  5  6  1  0  0  0  0
  5  7  1  0  0  0  0
  5  8  1  0  0  0  0
  8  9  1  0  0  0  0
  9 10  1  0  0  0  0
 10 11  2  0  0  0  0
 10 12  1  0  0  0  0
 12 13  4  0  0  0  0
 13 14  4  0  0  0  0
 14 15  4  0  0  0  0
 15 16  4  0  0  0  0
 16 17  4  0  0  0  0
 12 17  4  0  0  0  0
M  END

> <ChembankId>
907413

> <SMILES>
CCCNC(C)(C)COC(=O)c1ccccc1

> <InChI>
1/C14H21NO2/c1-4-10-15-14(2,3)11-17-13(16)12-8-6-5-7-9-12/h5-9,15H,4,10-11H2,1-3H3

$$$$
3069853
  Marvin  11101114202D          

 27 28  0  0  0  0            999 V2000
    1.8010   -2.9230    0.0000 O   0  0  0  0  0  0  0  0  0  0  0  0
    2.5856   -3.1780    0.0000 C   0  0  0  0  0  0  0  0  0  0  0  0
    2.7571   -3.9849    0.0000 N   0  0  0  0  0  0  0  0  0  0  0  0
    3.5108   -4.3205    0.0000 C   0  0  0  0  0  0  0  0  0  0  0  0
    4.2253   -3.9080    0.0000 N   0  0  0  0  0  0  0  0  0  0  0  0
    4.9398   -4.3205    0.0000 C   0  0  0  0  0  0  0  0  0  0  0  0
    4.9398   -5.1455    0.0000 O   0  0  0  0  0  0  0  0  0  0  0  0
    5.6542   -3.9080    0.0000 N   0  0  0  0  0  0  0  0  0  0  0  0
    6.3687   -4.3205    0.0000 C   0  0  0  0  0  0  0  0  0  0  0  0
    7.0832   -3.9080    0.0000 N   0  0  0  0  0  0  0  0  0  0  0  0
    7.7976   -4.3205    0.0000 C   0  0  0  0  0  0  0  0  0  0  0  0
    7.7976   -5.1455    0.0000 O   0  0  0  0  0  0  0  0  0  0  0  0
    8.5121   -3.9080    0.0000 N   0  0  0  0  0  0  0  0  0  0  0  0
    9.2266   -4.3205    0.0000 C   0  0  0  0  0  0  0  0  0  0  0  0
    9.9803   -3.9849    0.0000 N   0  0  0  0  0  0  0  0  0  0  0  0
   10.1518   -3.1780    0.0000 C   0  0  0  0  0  0  0  0  0  0  0  0
    9.5387   -2.6259    0.0000 O   0  0  0  0  0  0  0  0  0  0  0  0
   10.5323   -4.5980    0.0000 C   0  0  0  0  0  0  0  0  0  0  0  0
   11.3528   -4.5118    0.0000 O   0  0  0  0  0  0  0  0  0  0  0  0
   10.1198   -5.3125    0.0000 N   0  0  0  0  0  0  0  0  0  0  0  0
    9.3128   -5.1410    0.0000 C   0  0  0  0  0  0  0  0  0  0  0  0
    8.6997   -5.6930    0.0000 O   0  0  0  0  0  0  0  0  0  0  0  0
    3.4246   -5.1410    0.0000 C   0  0  0  0  0  0  0  0  0  0  0  0
    4.0377   -5.6930    0.0000 O   0  0  0  0  0  0  0  0  0  0  0  0
    2.6176   -5.3125    0.0000 N   0  0  0  0  0  0  0  0  0  0  0  0
    2.2051   -4.5980    0.0000 C   0  0  0  0  0  0  0  0  0  0  0  0
    1.3846   -4.5118    0.0000 O   0  0  0  0  0  0  0  0  0  0  0  0
  1  2  1  0  0  0  0
  2  3  1  0  0  0  0
  3  4  1  0  0  0  0
  4  5  1  0  0  0  0
  5  6  1  0  0  0  0
  6  7  2  0  0  0  0
  6  8  1  0  0  0  0
  8  9  1  0  0  0  0
  9 10  1  0  0  0  0
 10 11  1  0  0  0  0
 11 12  2  0  0  0  0
 11 13  1  0  0  0  0
 13 14  1  0  0  0  0
 14 15  1  0  0  0  0
 15 16  1  0  0  0  0
 16 17  1  0  0  0  0
 15 18  1  0  0  0  0
 18 19  2  0  0  0  0
 18 20  1  0  0  0  0
 20 21  1  0  0  0  0
 14 21  1  0  0  0  0
 21 22  2  0  0  0  0
  4 23  1  0  0  0  0
 23 24  2  0  0  0  0
 23 25  1  0  0  0  0
 25 26  1  0  0  0  0
  3 26  1  0  0  0  0
 26 27  2  0  0  0  0
M  END

> <ChembankId>
3069853

> <SMILES>
OCN1C(NC(=O)NCNC(=O)NC2N(CO)C(=O)NC2=O)C(=O)NC1=O

> <InChI>
1/C11H16N8O8/c20-2-18-4(6(22)16-10(18)26)14-8(24)12-1-13-9(25)15-5-7(23)17-11(27)19(5)3-21/h4-5,20-21H,1-3H2,(H2,12,14,24)(H2,13,15,25)(H,16,22,26)(H,17,23,27)

$$$$
1000206
  Marvin  11101114202D          

 19 20  0  0  1  0            999 V2000
    4.2868    0.0000    0.0000 C   0  0  0  0  0  0  0  0  0  0  0  0
    5.0013    0.4125    0.0000 C   0  0  0  0  0  0  0  0  0  0  0  0
    5.0013    1.2375    0.0000 C   0  0  0  0  0  0  0  0  0  0  0  0
    5.7158    0.0000    0.0000 N   0  0  0  0  0  0  0  0  0  0  0  0
    6.4302    0.4125    0.0000 C   0  0  0  0  0  0  0  0  0  0  0  0
    7.1447    0.0000    0.0000 C   0  0  1  0  0  0  0  0  0  0  0  0
    7.1447   -0.8250    0.0000 O   0  0  0  0  0  0  0  0  0  0  0  0
    7.8592    0.4125    0.0000 C   0  0  0  0  0  0  0  0  0  0  0  0
    8.5737    0.0000    0.0000 O   0  0  0  0  0  0  0  0  0  0  0  0
    9.2881    0.4125    0.0000 C   0  0  0  0  0  0  0  0  0  0  0  0
    9.2881    1.2375    0.0000 C   0  0  0  0  0  0  0  0  0  0  0  0
   10.0026    1.6500    0.0000 C   0  0  0  0  0  0  0  0  0  0  0  0
   10.7171    1.2375    0.0000 C   0  0  0  0  0  0  0  0  0  0  0  0
   10.7171    0.4125    0.0000 C   0  0  0  0  0  0  0  0  0  0  0  0
   11.4315    0.0000    0.0000 C   0  0  0  0  0  0  0  0  0  0  0  0
   11.4315   -0.8250    0.0000 C   0  0  0  0  0  0  0  0  0  0  0  0
   10.7171   -1.2375    0.0000 C   0  0  0  0  0  0  0  0  0  0  0  0
   10.0026   -0.8250    0.0000 C   0  0  0  0  0  0  0  0  0  0  0  0
   10.0026    0.0000    0.0000 C   0  0  0  0  0  0  0  0  0  0  0  0
  1  2  1  0  0  0  0
  2  3  1  0  0  0  0
  2  4  1  0  0  0  0
  4  5  1  0  0  0  0
  5  6  1  0  0  0  0
  6  7  1  6  0  0  0
  6  8  1  0  0  0  0
  8  9  1  0  0  0  0
  9 10  1  0  0  0  0
 10 11  4  0  0  0  0
 11 12  4  0  0  0  0
 12 13  4  0  0  0  0
 13 14  4  0  0  0  0
 14 15  4  0  0  0  0
 15 16  4  0  0  0  0
 16 17  4  0  0  0  0
 17 18  4  0  0  0  0
 18 19  4  0  0  0  0
 10 19  4  0  0  0  0
 14 19  4  0  0  0  0
M  END

> <ChembankId>
1000206

> <SMILES>
CC(C)NC[C@@H](O)COc1cccc2ccccc12

> <InChI>
1/C16H21NO2/c1-12(2)17-10-14(18)11-19-16-9-5-7-13-6-3-4-8-15(13)16/h3-9,12,14,17-18H,10-11H2,1-2H3

$$$$
3188278
  Marvin  11101114202D          

 18 19  0  0  0  0            999 V2000
   -1.8212   -2.1269    0.0000 C   0  0  0  0  0  0  0  0  0  0  0  0
   -1.4087   -1.4124    0.0000 O   0  0  0  0  0  0  0  0  0  0  0  0
   -0.5837   -1.4124    0.0000 C   0  0  0  0  0  0  0  0  0  0  0  0
   -0.1712   -2.1269    0.0000 O   0  0  0  0  0  0  0  0  0  0  0  0
   -0.1712   -0.6979    0.0000 N   0  0  0  0  0  0  0  0  0  0  0  0
    0.6538   -0.6979    0.0000 C   0  0  0  0  0  0  0  0  0  0  0  0
    1.1387   -0.0305    0.0000 N   0  0  0  0  0  0  0  0  0  0  0  0
    1.9233   -0.2854    0.0000 C   0  0  0  0  0  0  0  0  0  0  0  0
    2.6378    0.1271    0.0000 C   0  0  0  0  0  0  0  0  0  0  0  0
    3.3523   -0.2854    0.0000 C   0  0  0  0  0  0  0  0  0  0  0  0
    4.0668    0.1271    0.0000 S   0  0  0  0  0  0  0  0  0  0  0  0
    4.7812   -0.2854    0.0000 C   0  0  0  0  0  0  0  0  0  0  0  0
    5.4957    0.1271    0.0000 C   0  0  0  0  0  0  0  0  0  0  0  0
    4.7812   -1.1104    0.0000 C   0  0  0  0  0  0  0  0  0  0  0  0
    3.3523   -1.1104    0.0000 C   0  0  0  0  0  0  0  0  0  0  0  0
    2.6378   -1.5229    0.0000 C   0  0  0  0  0  0  0  0  0  0  0  0
    1.9233   -1.1104    0.0000 C   0  0  0  0  0  0  0  0  0  0  0  0
    1.1387   -1.3654    0.0000 N   0  0  0  0  0  0  0  0  0  0  0  0
  1  2  1  0  0  0  0
  2  3  1  0  0  0  0
  3  4  2  0  0  0  0
  3  5  1  0  0  0  0
  5  6  1  0  0  0  0
  6  7  4  0  0  0  0
  7  8  4  0  0  0  0
  8  9  4  0  0  0  0
  9 10  4  0  0  0  0
 10 11  1  0  0  0  0
 11 12  1  0  0  0  0
 12 13  1  0  0  0  0
 12 14  1  0  0  0  0
 10 15  4  0  0  0  0
 15 16  4  0  0  0  0
 16 17  4  0  0  0  0
  8 17  4  0  0  0  0
 17 18  4  0  0  0  0
  6 18  4  0  0  0  0
M  STY  1   1 DAT
M  SAL   1  1  18
M  SDT   1 MRV_IMPLICIT_H                                        
M  SDD   1     0.0000    0.0000    DR    ALL  0       0  
M  SED   1 IMPL_H1
M  END

> <ChembankId>
3188278

> <SMILES>
COC(=O)Nc1nc2cc(SC(C)C)ccc2[nH]1

> <InChI>
1/C12H15N3O2S/c1-7(2)18-8-4-5-9-10(6-8)14-11(13-9)15-12(16)17-3/h4-7H,1-3H3,(H2,13,14,15,16)

$$$$
3188279
  Marvin  11101114202D          

 32 37  0  0  1  0            999 V2000
   -0.3870   -2.4710    0.0000 C   0  0  0  0  0  0  0  0  0  0  0  0
    0.4300   -2.3310    0.0000 C   0  0  0  0  0  0  0  0  0  0  0  0
    0.8666   -1.6043    0.0000 N   0  0  0  0  0  0  0  0  0  0  0  0
    0.4197   -0.8647    0.0000 C   0  0  0  0  0  0  0  0  0  0  0  0
    0.7821   -0.0895    0.0000 C   0  0  2  0  0  0  0  0  0  0  0  0
   -0.0050    0.2423    0.0000 C   0  0  0  0  0  0  0  0  0  0  0  0
   -0.2670    1.0330    0.0000 O   0  0  0  0  0  0  0  0  0  0  0  0
   -1.0116    1.3800    0.0000 C   0  0  0  0  0  0  0  0  0  0  0  0
    1.0155    0.7352    0.0000 C   0  0  0  0  0  0  0  0  0  0  0  0
    1.8202    0.9654    0.0000 C   0  0  0  0  0  0  0  0  0  0  0  0
    2.3453    0.3251    0.0000 C   0  0  2  0  0  0  0  0  0  0  0  0
    2.7004    1.1002    0.0000 O   0  0  0  0  0  0  0  0  0  0  0  0
    2.1346   -0.5353    0.0000 C   0  0  0  0  0  0  0  0  0  0  0  0
    2.9178   -0.1091    0.0000 C   0  0  0  0  0  0  0  0  0  0  0  0
    3.6456    0.4548    0.0000 C   0  0  0  0  0  0  0  0  0  0  0  0
    4.4646   -0.2533    0.0000 C   0  0  1  0  0  0  0  0  0  0  0  0
    4.0354    0.0925    0.0000 C   0  0  2  0  0  0  0  0  0  0  0  0
    4.0788   -0.7182    0.0000 O   0  0  0  0  0  0  0  0  0  0  0  0
    3.7541   -1.4475    0.0000 C   0  0  0  0  0  0  0  0  0  0  0  0
    4.0653   -2.3409    0.0000 O   0  0  0  0  0  0  0  0  0  0  0  0
    2.8822   -1.1255    0.0000 C   0  0  0  0  0  0  0  0  0  0  0  0
    3.3899   -0.6478    0.0000 C   0  0  0  0  0  0  0  0  0  0  0  0
    3.3060   -1.4797    0.0000 C   0  0  2  0  0  0  0  0  0  0  0  0
    3.1280   -2.3442    0.0000 O   0  0  0  0  0  0  0  0  0  0  0  0
    4.1200   -1.6852    0.0000 C   0  0  0  0  0  0  0  0  0  0  0  0
    4.7393   -1.0995    0.0000 C   0  0  0  0  0  0  0  0  0  0  0  0
    5.5538   -1.3482    0.0000 O   0  0  0  0  0  0  0  0  0  0  0  0
    5.9057   -2.1021    0.0000 C   0  0  0  0  0  0  0  0  0  0  0  0
    2.3984   -1.7119    0.0000 C   0  0  1  0  0  0  0  0  0  0  0  0
    1.3902   -1.3704    0.0000 C   0  0  0  0  0  0  0  0  0  0  0  0
    1.4816   -0.4669    0.0000 C   0  0  0  0  0  0  0  0  0  0  0  0
    1.8221   -1.5122    0.0000 C   0  0  1  0  0  0  0  0  0  0  0  0
  1  2  1  0  0  0  0
  2  3  1  0  0  0  0
  3  4  1  0  0  0  0
  4  5  1  0  0  0  0
  5  6  1  1  0  0  0
  6  7  1  0  0  0  0
  7  8  1  0  0  0  0
  5  9  1  0  0  0  0
  9 10  1  0  0  0  0
 10 11  1  0  0  0  0
 11 12  1  6  0  0  0
 11 13  1  0  0  0  0
 13 14  1  0  0  0  0
 14 15  1  0  0  0  0
 16 15  1  6  0  0  0
 16 17  1  0  0  0  0
 17 18  1  1  0  0  0
 18 19  1  0  0  0  0
 19 20  2  0  0  0  0
 19 21  1  0  0  0  0
 17 22  1  0  0  0  0
 14 22  1  0  0  0  0
 22 23  1  0  0  0  0
 23 24  1  1  0  0  0
 23 25  1  0  0  0  0
 25 26  1  0  0  0  0
 16 26  1  0  0  0  0
 26 27  1  0  0  0  0
 27 28  1  0  0  0  0
 23 29  1  0  0  0  0
 29 30  1  1  0  0  0
 30 31  1  0  0  0  0
 13 31  1  0  0  0  0
  5 31  1  0  0  0  0
 13 32  1  0  0  0  0
 29 32  1  0  0  0  0
 32  3  1  1  0  0  0
M  END

> <ChembankId>
3188279

> <SMILES>
CCN1C[C@]2(COC)CC[C@H](O)C3(C4C[C@H]5[C@H](OC(=O)C)C4[C@](O)(CC5OC)[C@H]6CC32)[C@@H]61

> <InChI>
1/C25H39NO6/c1-5-26-11-23(12-30-3)7-6-19(28)25-15-8-14-17(31-4)10-24(29,16(22(25)26)9-18(23)25)20(15)21(14)32-13(2)27/h14-22,28-29H,5-12H2,1-4H3/t14-,15-,16+,17+,18-,19-,20-,21-,22-,23+,24+,25-/m1/s1

$$$$
3069855
  Marvin  11101114202D          

  7  7  0  0  0  0            999 V2000
    0.7145    2.0625    0.0000 Cl  0  0  0  0  0  0  0  0  0  0  0  0
    0.7145    1.2375    0.0000 C   0  0  0  0  0  0  0  0  0  0  0  0
    1.4289    0.8250    0.0000 C   0  0  0  0  0  0  0  0  0  0  0  0
    1.4289    0.0000    0.0000 N   0  0  0  0  0  0  0  0  0  0  0  0
    0.7145   -0.4125    0.0000 C   0  0  0  0  0  0  0  0  0  0  0  0
    0.0000   -0.0000    0.0000 C   0  0  0  0  0  0  0  0  0  0  0  0
   -0.0000    0.8250    0.0000 N   0  0  0  0  0  0  0  0  0  0  0  0
  1  2  1  0  0  0  0
  2  3  4  0  0  0  0
  3  4  4  0  0  0  0
  4  5  4  0  0  0  0
  5  6  4  0  0  0  0
  6  7  4  0  0  0  0
  2  7  4  0  0  0  0
M  END

> <ChembankId>
3069855

> <SMILES>
Clc1cnccn1

> <InChI>
1/C4H3ClN2/c5-4-3-6-1-2-7-4/h1-3H

$$$$
3069858
  Marvin  11101114202D          

 22 25  0  0  1  0            999 V2000
   -2.8385    0.0117    0.0000 N   0  0  0  0  0  0  0  0  0  0  0  0
   -2.0538    0.2666    0.0000 C   0  0  0  0  0  0  0  0  0  0  0  0
   -1.8823    1.0736    0.0000 N   0  0  0  0  0  0  0  0  0  0  0  0
   -1.0977    1.3285    0.0000 C   0  0  0  0  0  0  0  0  0  0  0  0
   -0.4846    0.7765    0.0000 N   0  0  0  0  0  0  0  0  0  0  0  0
   -0.6561   -0.0305    0.0000 C   0  0  0  0  0  0  0  0  0  0  0  0
   -0.1712   -0.6979    0.0000 N   0  0  0  0  0  0  0  0  0  0  0  0
   -0.6561   -1.3654    0.0000 C   0  0  0  0  0  0  0  0  0  0  0  0
   -1.4407   -1.1104    0.0000 N   0  0  0  0  0  0  0  0  0  0  0  0
   -1.4407   -0.2854    0.0000 C   0  0  0  0  0  0  0  0  0  0  0  0
    0.6538   -0.6979    0.0000 C   0  0  2  0  0  0  0  0  0  0  0  0
    1.1387   -0.0305    0.0000 O   0  0  0  0  0  0  0  0  0  0  0  0
    1.9233   -0.2854    0.0000 C   0  0  2  0  0  0  0  0  0  0  0  0
    2.6378    0.1271    0.0000 C   0  0  0  0  0  0  0  0  0  0  0  0
    3.3523   -0.2854    0.0000 O   0  0  0  0  0  0  0  0  0  0  0  0
    3.3523   -1.1104    0.0000 P   0  0  0  0  0  0  0  0  0  0  0  0
    4.1648   -0.9672    0.0000 O   0  0  0  0  0  0  0  0  0  0  0  0
    3.6345   -1.8857    0.0000 O   0  0  0  0  0  0  0  0  0  0  0  0
    2.6378   -1.5229    0.0000 O   0  0  0  0  0  0  0  0  0  0  0  0
    1.9233   -1.1104    0.0000 C   0  0  2  0  0  0  0  0  0  0  0  0
    1.1387   -1.3654    0.0000 C   0  0  0  0  0  0  0  0  0  0  0  0
    0.8838   -2.1500    0.0000 O   0  0  0  0  0  0  0  0  0  0  0  0
  1  2  1  0  0  0  0
  2  3  4  0  0  0  0
  3  4  4  0  0  0  0
  4  5  4  0  0  0  0
  5  6  4  0  0  0  0
  6  7  4  0  0  0  0
  7  8  4  0  0  0  0
  8  9  4  0  0  0  0
  9 10  4  0  0  0  0
  2 10  4  0  0  0  0
  6 10  4  0  0  0  0
 11  7  1  6  0  0  0
 11 12  1  0  0  0  0
 13 12  1  6  0  0  0
 13 14  1  0  0  0  0
 14 15  1  0  0  0  0
 15 16  1  0  0  0  0
 16 17  2  0  0  0  0
 16 18  1  0  0  0  0
 16 19  1  0  0  0  0
 20 19  1  6  0  0  0
 13 20  1  0  0  0  0
 20 21  1  0  0  0  0
 11 21  1  0  0  0  0
 21 22  1  0  0  0  0
M  END

> <ChembankId>
3069858

> <SMILES>
Nc1ncnc2n(cnc12)[C@@H]3O[C@@H]4COP(=O)(O)O[C@@H]4C3O

> <InChI>
1/C10H12N5O6P/c11-8-5-9(13-2-12-8)15(3-14-5)10-6(16)7-4(20-10)1-19-22(17,18)21-7/h2-4,6-7,10,16H,1H2,(H,17,18)(H2,11,12,13)/t4-,6-,7-,10+/m0/s1

$$$$
3188282
  Marvin  11101114202D          

 33 34  0  0  0  0            999 V2000
    0.0000   -1.6500    0.0000 C   0  0  0  0  0  0  0  0  0  0  0  0
    0.7145   -1.2375    0.0000 C   0  0  0  0  0  0  0  0  0  0  0  0
    0.7145   -0.4125    0.0000 C   0  0  0  0  0  0  0  0  0  0  0  0
    0.0000    0.0000    0.0000 C   0  0  0  0  0  0  0  0  0  0  0  0
   -0.7145   -0.4125    0.0000 C   0  0  0  0  0  0  0  0  0  0  0  0
   -1.4289    0.0000    0.0000 C   0  0  0  0  0  0  0  0  0  0  0  0
   -1.4289    0.8250    0.0000 C   0  0  0  0  0  0  0  0  0  0  0  0
   -2.1434   -0.4125    0.0000 C   0  0  0  0  0  0  0  0  0  0  0  0
   -2.8579   -0.0000    0.0000 C   0  0  0  0  0  0  0  0  0  0  0  0
   -3.5724   -0.4125    0.0000 C   0  0  0  0  0  0  0  0  0  0  0  0
   -4.2868   -0.0000    0.0000 C   0  0  0  0  0  0  0  0  0  0  0  0
   -4.2868    0.8250    0.0000 C   0  0  0  0  0  0  0  0  0  0  0  0
   -5.0013   -0.4125    0.0000 C   0  0  0  0  0  0  0  0  0  0  0  0
   -5.7158   -0.0000    0.0000 C   0  0  0  0  0  0  0  0  0  0  0  0
   -6.4302   -0.4125    0.0000 C   0  0  0  0  0  0  0  0  0  0  0  0
   -7.1447   -0.0000    0.0000 C   0  0  0  0  0  0  0  0  0  0  0  0
   -7.1447    0.8250    0.0000 C   0  0  0  0  0  0  0  0  0  0  0  0
   -7.8592   -0.4125    0.0000 C   0  0  0  0  0  0  0  0  0  0  0  0
   -8.5737   -0.0000    0.0000 C   0  0  0  0  0  0  0  0  0  0  0  0
   -9.2881   -0.4125    0.0000 C   0  0  0  0  0  0  0  0  0  0  0  0
  -10.0026   -0.0000    0.0000 C   0  0  0  0  0  0  0  0  0  0  0  0
  -10.7171   -0.4125    0.0000 C   0  0  0  0  0  0  0  0  0  0  0  0
  -10.0026    0.8250    0.0000 C   0  0  0  0  0  0  0  0  0  0  0  0
    1.4289    0.0000    0.0000 C   0  0  0  0  0  0  0  0  0  0  0  0
    1.4289    0.8250    0.0000 O   0  0  0  0  0  0  0  0  0  0  0  0
    2.1434   -0.4125    0.0000 C   0  0  0  0  0  0  0  0  0  0  0  0
    2.8579    0.0000    0.0000 C   0  0  0  0  0  0  0  0  0  0  0  0
    3.5724   -0.4125    0.0000 C   0  0  0  0  0  0  0  0  0  0  0  0
    3.5724   -1.2375    0.0000 C   0  0  0  0  0  0  0  0  0  0  0  0
    2.8579   -1.6500    0.0000 C   0  0  0  0  0  0  0  0  0  0  0  0
    2.1434   -1.2375    0.0000 C   0  0  0  0  0  0  0  0  0  0  0  0
    1.4289   -1.6500    0.0000 C   0  0  0  0  0  0  0  0  0  0  0  0
    1.4289   -2.4750    0.0000 O   0  0  0  0  0  0  0  0  0  0  0  0
  1  2  1  0  0  0  0
  2  3  1  0  0  0  0
  3  4  1  0  0  0  0
  4  5  1  0  0  0  0
  5  6  2  0  0  0  0
  6  7  1  0  0  0  0
  6  8  1  0  0  0  0
  8  9  1  0  0  0  0
  9 10  1  0  0  0  0
 10 11  2  0  0  0  0
 11 12  1  0  0  0  0
 11 13  1  0  0  0  0
 13 14  1  0  0  0  0
 14 15  1  0  0  0  0
 15 16  2  0  0  0  0
 16 17  1  0  0  0  0
 16 18  1  0  0  0  0
 18 19  1  0  0  0  0
 19 20  1  0  0  0  0
 20 21  2  0  0  0  0
 21 22  1  0  0  0  0
 21 23  1  0  0  0  0
  3 24  1  0  0  0  0
 24 25  2  0  0  0  0
 24 26  1  0  0  0  0
 26 27  4  0  0  0  0
 27 28  4  0  0  0  0
 28 29  4  0  0  0  0
 29 30  4  0  0  0  0
 30 31  4  0  0  0  0
 26 31  4  0  0  0  0
 31 32  1  0  0  0  0
  2 32  1  0  0  0  0
 32 33  2  0  0  0  0
M  END

> <ChembankId>
3188282

> <SMILES>
CC1C(C/C=C(\C)/CC/C=C(\C)/CC/C=C(\C)/CCC=C(C)C)C(=O)c2ccccc2C1=O

> <InChI>
1/C31H42O2/c1-22(2)12-9-13-23(3)14-10-15-24(4)16-11-17-25(5)20-21-27-26(6)30(32)28-18-7-8-19-29(28)31(27)33/h7-8,12,14,16,18-20,26-27H,9-11,13,15,17,21H2,1-6H3/b23-14+,24-16+,25-20+/t26-,27-/m0/s1

$$$$
1111897
  Marvin  11101114202D          

 15 16  0  0  0  0            999 V2000
    0.0000   -2.4750    0.0000 C   0  0  0  0  0  0  0  0  0  0  0  0
    0.0000   -1.6500    0.0000 O   0  0  0  0  0  0  0  0  0  0  0  0
    0.7145   -1.2375    0.0000 C   0  0  0  0  0  0  0  0  0  0  0  0
    0.7145   -0.4125    0.0000 C   0  0  0  0  0  0  0  0  0  0  0  0
    1.4289    0.0000    0.0000 C   0  0  0  0  0  0  0  0  0  0  0  0
    2.1434   -0.4125    0.0000 C   0  0  0  0  0  0  0  0  0  0  0  0
    2.8579    0.0000    0.0000 N   0  0  0  0  0  0  0  0  0  0  0  0
    3.5724   -0.4125    0.0000 C   0  0  0  0  0  0  0  0  0  0  0  0
    3.5724   -1.2375    0.0000 C   0  0  0  0  0  0  0  0  0  0  0  0
    2.8579   -1.6500    0.0000 C   0  0  0  0  0  0  0  0  0  0  0  0
    2.8579   -2.4750    0.0000 C   0  0  0  0  0  0  0  0  0  0  0  0
    2.1434   -2.8875    0.0000 O   0  0  0  0  0  0  0  0  0  0  0  0
    3.5724   -2.8875    0.0000 O   0  0  0  0  0  0  0  0  0  0  0  0
    2.1434   -1.2375    0.0000 C   0  0  0  0  0  0  0  0  0  0  0  0
    1.4289   -1.6500    0.0000 C   0  0  0  0  0  0  0  0  0  0  0  0
  1  2  1  0  0  0  0
  2  3  1  0  0  0  0
  3  4  4  0  0  0  0
  4  5  4  0  0  0  0
  5  6  4  0  0  0  0
  6  7  4  0  0  0  0
  7  8  4  0  0  0  0
  8  9  4  0  0  0  0
  9 10  4  0  0  0  0
 10 11  1  0  0  0  0
 11 12  2  0  0  0  0
 11 13  1  0  0  0  0
 10 14  4  0  0  0  0
  6 14  4  0  0  0  0
 14 15  4  0  0  0  0
  3 15  4  0  0  0  0
M  END

> <ChembankId>
1111897

> <SMILES>
COc1ccc2nccc(C(=O)O)c2c1

> <InChI>
1/C11H9NO3/c1-15-7-2-3-10-9(6-7)8(11(13)14)4-5-12-10/h2-6H,1H3,(H,13,14)

$$$$
3069862
  Marvin  11101114202D          

 18 19  0  0  0  0            999 V2000
    6.2102    1.9354    0.0000 C   0  0  0  0  0  0  0  0  0  0  0  0
    5.4957    2.3479    0.0000 C   0  0  0  0  0  0  0  0  0  0  0  0
    4.7812    1.9354    0.0000 C   0  0  0  0  0  0  0  0  0  0  0  0
    4.0668    2.3479    0.0000 C   0  0  0  0  0  0  0  0  0  0  0  0
    3.3523    1.9354    0.0000 C   0  0  0  0  0  0  0  0  0  0  0  0
    3.3523    1.1104    0.0000 C   0  0  0  0  0  0  0  0  0  0  0  0
    2.6378    0.6979    0.0000 C   0  0  0  0  0  0  0  0  0  0  0  0
    1.9233    1.1104    0.0000 C   0  0  0  0  0  0  0  0  0  0  0  0
    1.1387    0.8555    0.0000 N   0  0  0  0  0  0  0  0  0  0  0  0
    0.6538    1.5229    0.0000 C   0  0  0  0  0  0  0  0  0  0  0  0
   -0.1712    1.5229    0.0000 N   0  0  0  0  0  0  0  0  0  0  0  0
   -0.5837    0.8085    0.0000 C   0  0  0  0  0  0  0  0  0  0  0  0
   -0.1712    0.0940    0.0000 O   0  0  0  0  0  0  0  0  0  0  0  0
   -1.4087    0.8085    0.0000 O   0  0  0  0  0  0  0  0  0  0  0  0
   -1.8212    0.0940    0.0000 C   0  0  0  0  0  0  0  0  0  0  0  0
    1.1387    2.1904    0.0000 N   0  0  0  0  0  0  0  0  0  0  0  0
    1.9233    1.9354    0.0000 C   0  0  0  0  0  0  0  0  0  0  0  0
    2.6378    2.3479    0.0000 C   0  0  0  0  0  0  0  0  0  0  0  0
  1  2  1  0  0  0  0
  2  3  1  0  0  0  0
  3  4  1  0  0  0  0
  4  5  1  0  0  0  0
  5  6  4  0  0  0  0
  6  7  4  0  0  0  0
  7  8  4  0  0  0  0
  8  9  4  0  0  0  0
  9 10  4  0  0  0  0
 10 11  1  0  0  0  0
 11 12  1  0  0  0  0
 12 13  2  0  0  0  0
 12 14  1  0  0  0  0
 14 15  1  0  0  0  0
 10 16  4  0  0  0  0
 16 17  4  0  0  0  0
  8 17  4  0  0  0  0
 17 18  4  0  0  0  0
  5 18  4  0  0  0  0
M  STY  1   1 DAT
M  SAL   1  1   9
M  SDT   1 MRV_IMPLICIT_H                                        
M  SDD   1     0.0000    0.0000    DR    ALL  0       0  
M  SED   1 IMPL_H1
M  END

> <ChembankId>
3069862

> <SMILES>
CCCCc1ccc2[nH]c(NC(=O)OC)nc2c1

> <InChI>
1/C13H17N3O2/c1-3-4-5-9-6-7-10-11(8-9)15-12(14-10)16-13(17)18-2/h6-8H,3-5H2,1-2H3,(H2,14,15,16,17)

$$$$
1829
  Marvin  11101114202D          

 19 20  0  0  1  0            999 V2000
    3.9934    3.3000    0.0000 C   0  0  0  0  0  0  0  0  0  0  0  0
    3.9934    2.4750    0.0000 C   0  0  0  0  0  0  0  0  0  0  0  0
    3.2789    2.0625    0.0000 N   0  0  0  0  0  0  0  0  0  0  0  0
    3.2789    1.2375    0.0000 C   0  0  1  0  0  0  0  0  0  0  0  0
    3.9934    0.8250    0.0000 C   0  0  0  0  0  0  0  0  0  0  0  0
    3.9934    0.0000    0.0000 C   0  0  2  0  0  0  0  0  0  0  0  0
    4.7079   -0.4125    0.0000 C   0  0  0  0  0  0  0  0  0  0  0  0
    3.2789   -0.4125    0.0000 S   0  0  0  0  0  0  0  0  0  0  0  0
    3.8092   -1.0445    0.0000 O   0  0  0  0  0  0  0  0  0  0  0  0
    2.7486   -1.0445    0.0000 O   0  0  0  0  0  0  0  0  0  0  0  0
    2.5645    0.0000    0.0000 C   0  0  0  0  0  0  0  0  0  0  0  0
    1.7798   -0.2549    0.0000 S   0  0  0  0  0  0  0  0  0  0  0  0
    1.2949    0.4125    0.0000 C   0  0  0  0  0  0  0  0  0  0  0  0
    1.7798    1.0799    0.0000 C   0  0  0  0  0  0  0  0  0  0  0  0
    2.5645    0.8250    0.0000 C   0  0  0  0  0  0  0  0  0  0  0  0
    0.4699    0.4125    0.0000 S   0  0  0  0  0  0  0  0  0  0  0  0
   -0.3551    0.4125    0.0000 O   0  0  0  0  0  0  0  0  0  0  0  0
    0.4699    1.2375    0.0000 O   0  0  0  0  0  0  0  0  0  0  0  0
    0.4699   -0.4125    0.0000 N   0  0  0  0  0  0  0  0  0  0  0  0
  1  2  1  0  0  0  0
  2  3  1  0  0  0  0
  4  3  1  1  0  0  0
  4  5  1  0  0  0  0
  5  6  1  0  0  0  0
  6  7  1  6  0  0  0
  6  8  1  0  0  0  0
  8  9  2  0  0  0  0
  8 10  2  0  0  0  0
  8 11  1  0  0  0  0
 11 12  4  0  0  0  0
 12 13  4  0  0  0  0
 13 14  4  0  0  0  0
 14 15  4  0  0  0  0
  4 15  1  0  0  0  0
 11 15  4  0  0  0  0
 13 16  1  0  0  0  0
 16 17  2  0  0  0  0
 16 18  2  0  0  0  0
 16 19  1  0  0  0  0
M  END

> <ChembankId>
1829

> <SMILES>
CCN[C@H]1C[C@H](C)S(=O)(=O)c2sc(cc12)S(=O)(=O)N

> <InChI>
1/C10H16N2O4S3/c1-3-12-8-4-6(2)18(13,14)10-7(8)5-9(17-10)19(11,15)16/h5-6,8,12H,3-4H2,1-2H3,(H2,11,15,16)

$$$$
1073908
  Marvin  11101114202D          

 24 25  0  0  0  0            999 V2000
    4.6353   -4.8710    0.0000 C   0  0  0  0  0  0  0  0  0  0  0  0
    5.2298   -4.2990    0.0000 C   0  0  0  0  0  0  0  0  0  0  0  0
    5.0316   -3.4982    0.0000 N   0  3  0  0  0  0  0  0  0  0  0  0
    4.8335   -2.6973    0.0000 C   0  0  0  0  0  0  0  0  0  0  0  0
    5.4279   -2.1253    0.0000 C   0  0  0  0  0  0  0  0  0  0  0  0
    4.2308   -3.6963    0.0000 C   0  0  0  0  0  0  0  0  0  0  0  0
    3.6587   -3.1018    0.0000 C   0  0  0  0  0  0  0  0  0  0  0  0
    3.8875   -2.3092    0.0000 O   0  0  0  0  0  0  0  0  0  0  0  0
    2.8579   -3.3000    0.0000 N   0  0  0  0  0  0  0  0  0  0  0  0
    2.2858   -2.7055    0.0000 C   0  0  0  0  0  0  0  0  0  0  0  0
    1.4850   -2.9037    0.0000 C   0  0  0  0  0  0  0  0  0  0  0  0
    1.2562   -3.6963    0.0000 C   0  0  0  0  0  0  0  0  0  0  0  0
    0.9130   -2.3092    0.0000 C   0  0  0  0  0  0  0  0  0  0  0  0
    1.1418   -1.5166    0.0000 C   0  0  0  0  0  0  0  0  0  0  0  0
    1.9426   -1.3184    0.0000 C   0  0  0  0  0  0  0  0  0  0  0  0
    2.5147   -1.9129    0.0000 C   0  0  0  0  0  0  0  0  0  0  0  0
    3.3155   -1.7147    0.0000 C   0  0  0  0  0  0  0  0  0  0  0  0
    5.8325   -3.3000    0.0000 C   0  0  0  0  0  0  0  0  0  0  0  0
    6.4045   -3.8945    0.0000 C   0  0  0  0  0  0  0  0  0  0  0  0
    7.2053   -3.6963    0.0000 C   0  0  0  0  0  0  0  0  0  0  0  0
    7.7774   -4.2908    0.0000 C   0  0  0  0  0  0  0  0  0  0  0  0
    7.5486   -5.0834    0.0000 C   0  0  0  0  0  0  0  0  0  0  0  0
    6.7477   -5.2816    0.0000 C   0  0  0  0  0  0  0  0  0  0  0  0
    6.1757   -4.6871    0.0000 C   0  0  0  0  0  0  0  0  0  0  0  0
  1  2  1  0  0  0  0
  2  3  1  0  0  0  0
  3  4  1  0  0  0  0
  4  5  1  0  0  0  0
  3  6  1  0  0  0  0
  6  7  1  0  0  0  0
  7  8  2  0  0  0  0
  7  9  1  0  0  0  0
  9 10  1  0  0  0  0
 10 11  4  0  0  0  0
 11 12  1  0  0  0  0
 11 13  4  0  0  0  0
 13 14  4  0  0  0  0
 14 15  4  0  0  0  0
 15 16  4  0  0  0  0
 10 16  4  0  0  0  0
 16 17  1  0  0  0  0
  3 18  1  0  0  0  0
 18 19  1  0  0  0  0
 19 20  4  0  0  0  0
 20 21  4  0  0  0  0
 21 22  4  0  0  0  0
 22 23  4  0  0  0  0
 23 24  4  0  0  0  0
 19 24  4  0  0  0  0
M  CHG  1   3   1
M  END

> <ChembankId>
1073908

> <SMILES>
CC[N+](CC)(CC(=O)Nc1c(C)cccc1C)Cc2ccccc2

> <InChI>
1/C21H28N2O/c1-5-23(6-2,15-19-13-8-7-9-14-19)16-20(24)22-21-17(3)11-10-12-18(21)4/h7-14H,5-6,15-16H2,1-4H3/p+1

$$$$
1076027
  Marvin  11101114202D          

 19 20  0  0  0  0            999 V2000
    2.8579   -4.1250    0.0000 C   0  0  0  0  0  0  0  0  0  0  0  0
    2.1434   -3.7125    0.0000 C   0  0  0  0  0  0  0  0  0  0  0  0
    1.4289   -4.1250    0.0000 C   0  0  0  0  0  0  0  0  0  0  0  0
    0.7145   -3.7125    0.0000 C   0  0  0  0  0  0  0  0  0  0  0  0
    0.7145   -2.8875    0.0000 C   0  0  0  0  0  0  0  0  0  0  0  0
    1.4289   -2.4750    0.0000 C   0  0  0  0  0  0  0  0  0  0  0  0
    0.8986   -1.8430    0.0000 C   0  0  0  0  0  0  0  0  0  0  0  0
    1.9592   -1.8430    0.0000 C   0  0  0  0  0  0  0  0  0  0  0  0
    2.1434   -2.8875    0.0000 C   0  0  0  0  0  0  0  0  0  0  0  0
    0.0000   -4.1250    0.0000 O   0  0  0  0  0  0  0  0  0  0  0  0
    0.0000   -4.9500    0.0000 C   0  0  0  0  0  0  0  0  0  0  0  0
    0.7145   -5.3625    0.0000 O   0  0  0  0  0  0  0  0  0  0  0  0
   -0.7145   -5.3625    0.0000 C   0  0  0  0  0  0  0  0  0  0  0  0
   -0.7145   -6.1875    0.0000 C   0  0  0  0  0  0  0  0  0  0  0  0
   -1.4289   -6.6000    0.0000 C   0  0  0  0  0  0  0  0  0  0  0  0
   -2.1434   -6.1875    0.0000 C   0  0  0  0  0  0  0  0  0  0  0  0
   -2.1434   -5.3625    0.0000 C   0  0  0  0  0  0  0  0  0  0  0  0
   -1.4289   -4.9500    0.0000 C   0  0  0  0  0  0  0  0  0  0  0  0
   -1.4289   -4.1250    0.0000 O   0  0  0  0  0  0  0  0  0  0  0  0
  1  2  1  0  0  0  0
  2  3  1  0  0  0  0
  3  4  1  0  0  0  0
  4  5  1  0  0  0  0
  5  6  1  0  0  0  0
  6  7  1  0  0  0  0
  6  8  1  0  0  0  0
  6  9  1  0  0  0  0
  2  9  1  0  0  0  0
  4 10  1  0  0  0  0
 10 11  1  0  0  0  0
 11 12  2  0  0  0  0
 11 13  1  0  0  0  0
 13 14  4  0  0  0  0
 14 15  4  0  0  0  0
 15 16  4  0  0  0  0
 16 17  4  0  0  0  0
 17 18  4  0  0  0  0
 13 18  4  0  0  0  0
 18 19  1  0  0  0  0
M  END

> <ChembankId>
1076027

> <SMILES>
CC1CC(CC(C)(C)C1)OC(=O)c2ccccc2O

> <InChI>
1/C16H22O3/c1-11-8-12(10-16(2,3)9-11)19-15(18)13-6-4-5-7-14(13)17/h4-7,11-12,17H,8-10H2,1-3H3

$$$$
3075542
  Marvin  11101114202D          

 22 23  0  0  0  0            999 V2000
   -0.7145   -5.3625    0.0000 N   0  0  0  0  0  0  0  0  0  0  0  0
    0.0000   -4.9500    0.0000 C   0  0  0  0  0  0  0  0  0  0  0  0
    0.0000   -4.1250    0.0000 N   0  0  0  0  0  0  0  0  0  0  0  0
    0.7145   -3.7125    0.0000 C   0  0  0  0  0  0  0  0  0  0  0  0
    0.7145   -2.8875    0.0000 N   0  0  0  0  0  0  0  0  0  0  0  0
    1.4289   -4.1250    0.0000 C   0  0  0  0  0  0  0  0  0  0  0  0
    1.4289   -4.9500    0.0000 N   0  0  0  0  0  0  0  0  0  0  0  0
    0.7145   -5.3625    0.0000 C   0  0  0  0  0  0  0  0  0  0  0  0
    0.7145   -6.1875    0.0000 Cl  0  0  0  0  0  0  0  0  0  0  0  0
    2.1434   -3.7125    0.0000 C   0  0  0  0  0  0  0  0  0  0  0  0
    2.1434   -2.8875    0.0000 O   0  0  0  0  0  0  0  0  0  0  0  0
    2.8579   -4.1250    0.0000 N   0  0  0  0  0  0  0  0  0  0  0  0
    3.5724   -3.7125    0.0000 C   0  0  0  0  0  0  0  0  0  0  0  0
    3.5724   -2.8875    0.0000 N   0  0  0  0  0  0  0  0  0  0  0  0
    4.2868   -4.1250    0.0000 N   0  0  0  0  0  0  0  0  0  0  0  0
    5.0013   -3.7125    0.0000 C   0  0  0  0  0  0  0  0  0  0  0  0
    5.7158   -4.1250    0.0000 C   0  0  0  0  0  0  0  0  0  0  0  0
    6.4302   -3.7125    0.0000 C   0  0  0  0  0  0  0  0  0  0  0  0
    7.1447   -4.1250    0.0000 C   0  0  0  0  0  0  0  0  0  0  0  0
    7.1447   -4.9500    0.0000 C   0  0  0  0  0  0  0  0  0  0  0  0
    6.4302   -5.3625    0.0000 C   0  0  0  0  0  0  0  0  0  0  0  0
    5.7158   -4.9500    0.0000 C   0  0  0  0  0  0  0  0  0  0  0  0
  1  2  1  0  0  0  0
  2  3  4  0  0  0  0
  3  4  4  0  0  0  0
  4  5  1  0  0  0  0
  4  6  4  0  0  0  0
  6  7  4  0  0  0  0
  7  8  4  0  0  0  0
  2  8  4  0  0  0  0
  8  9  1  0  0  0  0
  6 10  1  0  0  0  0
 10 11  2  0  0  0  0
 10 12  1  0  0  0  0
 12 13  1  0  0  0  0
 13 14  2  0  0  0  0
 13 15  1  0  0  0  0
 15 16  1  0  0  0  0
 16 17  1  0  0  0  0
 17 18  4  0  0  0  0
 18 19  4  0  0  0  0
 19 20  4  0  0  0  0
 20 21  4  0  0  0  0
 21 22  4  0  0  0  0
 17 22  4  0  0  0  0
M  END

> <ChembankId>
3075542

> <SMILES>
Nc1nc(N)c(nc1Cl)C(=O)NC(=N)NCc2ccccc2

> <InChI>
1/C13H14ClN7O/c14-9-11(16)20-10(15)8(19-9)12(22)21-13(17)18-6-7-4-2-1-3-5-7/h1-5H,6H2,(H4,15,16,20)(H3,17,18,21,22)

$$$$
3076306
  Marvin  11101114202D          

 16 17  0  0  0  0            999 V2000
    0.0000    0.0000    0.0000 C   0  0  0  0  0  0  0  0  0  0  0  0
    0.7145   -0.4125    0.0000 C   0  0  0  0  0  0  0  0  0  0  0  0
    1.4289   -0.0000    0.0000 O   0  0  0  0  0  0  0  0  0  0  0  0
    0.7145   -1.2375    0.0000 C   0  0  0  0  0  0  0  0  0  0  0  0
    1.4289   -1.6500    0.0000 C   0  0  0  0  0  0  0  0  0  0  0  0
    1.4289   -2.4750    0.0000 C   0  0  0  0  0  0  0  0  0  0  0  0
    0.7145   -2.8875    0.0000 C   0  0  0  0  0  0  0  0  0  0  0  0
    0.0000   -2.4750    0.0000 C   0  0  0  0  0  0  0  0  0  0  0  0
    0.0000   -1.6500    0.0000 C   0  0  0  0  0  0  0  0  0  0  0  0
   -0.7145   -1.2375    0.0000 O   0  0  0  0  0  0  0  0  0  0  0  0
    0.7145   -3.7125    0.0000 N   0  0  0  0  0  0  0  0  0  0  0  0
    1.4289   -4.1250    0.0000 C   0  0  0  0  0  0  0  0  0  0  0  0
    1.4289   -4.9500    0.0000 C   0  0  0  0  0  0  0  0  0  0  0  0
    0.7145   -5.3625    0.0000 O   0  0  0  0  0  0  0  0  0  0  0  0
   -0.0000   -4.9500    0.0000 C   0  0  0  0  0  0  0  0  0  0  0  0
    0.0000   -4.1250    0.0000 C   0  0  0  0  0  0  0  0  0  0  0  0
  1  2  1  0  0  0  0
  2  3  2  0  0  0  0
  2  4  1  0  0  0  0
  4  5  4  0  0  0  0
  5  6  4  0  0  0  0
  6  7  4  0  0  0  0
  7  8  4  0  0  0  0
  8  9  4  0  0  0  0
  4  9  4  0  0  0  0
  9 10  1  0  0  0  0
  7 11  1  0  0  0  0
 11 12  1  0  0  0  0
 12 13  1  0  0  0  0
 13 14  1  0  0  0  0
 14 15  1  0  0  0  0
 15 16  1  0  0  0  0
 11 16  1  0  0  0  0
M  END

> <ChembankId>
3076306

> <SMILES>
CC(=O)c1ccc(cc1O)N2CCOCC2

> <InChI>
1/C12H15NO3/c1-9(14)11-3-2-10(8-12(11)15)13-4-6-16-7-5-13/h2-3,8,15H,4-7H2,1H3

$$$$
1025
  Marvin  11101114202D          

 48 52  0  0  1  0            999 V2000
    5.7168    5.0345    0.0000 C   0  0  0  0  0  0  0  0  0  0  0  0
    5.9656    4.2479    0.0000 C   0  0  0  0  0  0  0  0  0  0  0  0
    6.7712    4.0700    0.0000 C   0  0  0  0  0  0  0  0  0  0  0  0
    5.4087    3.6391    0.0000 C   0  0  0  0  0  0  0  0  0  0  0  0
    5.6575    2.8525    0.0000 C   0  0  0  0  0  0  0  0  0  0  0  0
    6.4631    2.6747    0.0000 O   0  0  0  0  0  0  0  0  0  0  0  0
    5.1006    2.2438    0.0000 O   0  0  0  0  0  0  0  0  0  0  0  0
    5.3494    1.4572    0.0000 C   0  0  0  0  0  0  0  0  0  0  0  0
    4.7926    0.8485    0.0000 C   0  0  0  0  0  0  0  0  0  0  0  0
    3.9870    1.0263    0.0000 O   0  0  0  0  0  0  0  0  0  0  0  0
    3.4301    0.4176    0.0000 C   0  0  2  0  0  0  0  0  0  0  0  0
    3.6789   -0.3690    0.0000 C   0  0  0  0  0  0  0  0  0  0  0  0
    3.1220   -0.9777    0.0000 C   0  0  2  0  0  0  0  0  0  0  0  0
    2.3164   -0.7998    0.0000 C   0  0  1  0  0  0  0  0  0  0  0  0
    1.7622   -1.4190    0.0000 C   0  0  0  0  0  0  0  0  0  0  0  0
    0.9528   -1.2521    0.0000 C   0  0  0  0  0  0  0  0  0  0  0  0
    0.6475   -0.4655    0.0000 C   0  0  1  0  0  0  0  0  0  0  0  0
    0.1720    0.0672    0.0000 C   0  0  0  0  0  0  0  0  0  0  0  0
   -0.4043    0.5328    0.0000 C   0  0  2  0  0  0  0  0  0  0  0  0
    0.1557    1.1920    0.0000 C   0  0  0  0  0  0  0  0  0  0  0  0
    1.0012    1.0333    0.0000 C   0  0  0  0  0  0  0  0  0  0  0  0
    1.2466    0.1886    0.0000 C   0  0  1  0  0  0  0  0  0  0  0  0
    2.0677   -0.0132    0.0000 C   0  0  1  0  0  0  0  0  0  0  0  0
    1.8283    0.7762    0.0000 C   0  0  0  0  0  0  0  0  0  0  0  0
    2.6245    0.5955    0.0000 C   0  0  0  0  0  0  0  0  0  0  0  0
   -0.1624   -0.8484    0.0000 C   0  0  1  0  0  0  0  0  0  0  0  0
   -0.2981   -1.6622    0.0000 O   0  0  0  0  0  0  0  0  0  0  0  0
   -0.7853   -0.2418    0.0000 C   0  0  0  0  0  0  0  0  0  0  0  0
   -1.5983   -0.3819    0.0000 C   0  0  0  0  0  0  0  0  0  0  0  0
    3.3708   -1.7643    0.0000 C   0  0  0  0  0  0  0  0  0  0  0  0
    2.8140   -2.3731    0.0000 O   0  0  0  0  0  0  0  0  0  0  0  0
    4.1764   -1.9422    0.0000 O   0  0  0  0  0  0  0  0  0  0  0  0
    5.0413    0.0619    0.0000 O   0  0  0  0  0  0  0  0  0  0  0  0
    5.8469   -0.1160    0.0000 C   0  0  0  0  0  0  0  0  0  0  0  0
    6.0957   -0.9026    0.0000 C   0  0  0  0  0  0  0  0  0  0  0  0
    5.5388   -1.5113    0.0000 O   0  0  0  0  0  0  0  0  0  0  0  0
    6.4038    0.4927    0.0000 C   0  0  0  0  0  0  0  0  0  0  0  0
    7.2093    0.3149    0.0000 O   0  0  0  0  0  0  0  0  0  0  0  0
    7.4581   -0.4717    0.0000 S   0  0  0  0  0  0  0  0  0  0  0  0
    8.2447   -0.2230    0.0000 O   0  0  0  0  0  0  0  0  0  0  0  0
    6.6715   -0.7205    0.0000 O   0  0  0  0  0  0  0  0  0  0  0  0
    7.7069   -1.2584    0.0000 O   0  0  0  0  0  0  0  0  0  0  0  0
    6.1550    1.2793    0.0000 C   0  0  0  0  0  0  0  0  0  0  0  0
    6.7118    1.8881    0.0000 O   0  0  0  0  0  0  0  0  0  0  0  0
    7.5174    1.7102    0.0000 S   0  0  0  0  0  0  0  0  0  0  0  0
    7.3396    0.9046    0.0000 O   0  0  0  0  0  0  0  0  0  0  0  0
    8.3230    1.5323    0.0000 O   0  0  0  0  0  0  0  0  0  0  0  0
    7.6953    2.5158    0.0000 O   0  0  0  0  0  0  0  0  0  0  0  0
  1  2  1  0  0  0  0
  2  3  1  0  0  0  0
  2  4  1  0  0  0  0
  4  5  1  0  0  0  0
  5  6  2  0  0  0  0
  5  7  1  0  0  0  0
  7  8  1  0  0  0  0
  8  9  1  0  0  0  0
  9 10  1  0  0  0  0
 11 10  1  6  0  0  0
 11 12  1  0  0  0  0
 12 13  1  0  0  0  0
 13 14  1  0  0  0  0
 14 15  1  1  0  0  0
 15 16  1  0  0  0  0
 16 17  1  0  0  0  0
 17 18  1  1  0  0  0
 19 18  1  6  0  0  0
 19 20  1  0  0  0  0
 20 21  1  0  0  0  0
 22 21  1  1  0  0  0
 17 22  1  0  0  0  0
 22 23  1  0  0  0  0
 14 23  1  0  0  0  0
 23 24  1  1  0  0  0
 23 25  1  0  0  0  0
 11 25  1  0  0  0  0
 17 26  1  0  0  0  0
 26 27  1  1  0  0  0
 26 28  1  0  0  0  0
 19 28  1  0  0  0  0
 28 29  2  0  0  0  0
 13 30  1  1  0  0  0
 30 31  2  0  0  0  0
 30 32  1  0  0  0  0
  9 33  1  0  0  0  0
 33 34  1  0  0  0  0
 34 35  1  0  0  0  0
 35 36  1  0  0  0  0
 34 37  1  0  0  0  0
 37 38  1  0  0  0  0
 38 39  1  0  0  0  0
 39 40  2  0  0  0  0
 39 41  2  0  0  0  0
 39 42  1  0  0  0  0
 37 43  1  0  0  0  0
  8 43  1  0  0  0  0
 43 44  1  0  0  0  0
 44 45  1  0  0  0  0
 45 46  2  0  0  0  0
 45 47  2  0  0  0  0
 45 48  1  0  0  0  0
M  END

> <ChembankId>
1025

> <SMILES>
CC(C)CC(=O)OC1C(O[C@@H]2C[C@H]([C@H]3CC[C@]4(C[C@@H]5CC[C@H]4[C@]3(C)C2)[C@@H](O)C5=C)C(=O)O)OC(CO)C(OS(=O)(=O)O)C1OS(=O)(=O)O

> <InChI>
1/C30H46O16S2/c1-14(2)9-22(32)44-25-24(46-48(39,40)41)23(45-47(36,37)38)20(13-31)43-28(25)42-17-10-18(27(34)35)19-7-8-30-11-16(15(3)26(30)33)5-6-21(30)29(19,4)12-17/h14,16-21,23-26,28,31,33H,3,5-13H2,1-2,4H3,(H,34,35)(H,36,37,38)(H,39,40,41)/t16-,17-,18-,19+,20+,21+,23+,24+,25-,26-,28-,29-,30-/m1/s1

$$$$
3199703
  Marvin  11101114202D          

 59 65  0  0  1  0            999 V2000
   12.1497   -2.1803    0.0000 C   0  0  0  0  0  0  0  0  0  0  0  0
   11.3761   -2.4671    0.0000 C   0  0  0  0  0  0  0  0  0  0  0  0
   10.7410   -1.9406    0.0000 C   0  0  0  0  0  0  0  0  0  0  0  0
    9.9674   -2.2273    0.0000 O   0  0  0  0  0  0  0  0  0  0  0  0
    9.3323   -1.7008    0.0000 C   0  0  0  0  0  0  0  0  0  0  0  0
    8.6972   -1.1743    0.0000 C   0  0  0  0  0  0  0  0  0  0  0  0
    7.9236   -1.4610    0.0000 C   0  0  2  0  0  0  0  0  0  0  0  0
    7.7852   -2.2743    0.0000 C   0  0  0  0  0  0  0  0  0  0  0  0
    8.4203   -2.8009    0.0000 C   0  0  0  0  0  0  0  0  0  0  0  0
    8.2948   -3.7809    0.0000 C   0  0  0  0  0  0  0  0  0  0  0  0
    7.8110   -4.4491    0.0000 C   0  0  0  0  0  0  0  0  0  0  0  0
    7.1082   -4.8813    0.0000 C   0  0  0  0  0  0  0  0  0  0  0  0
    7.3950   -5.6549    0.0000 C   0  0  0  0  0  0  0  0  0  0  0  0
    6.2936   -5.0117    0.0000 C   0  0  0  0  0  0  0  0  0  0  0  0
    6.2625   -5.8361    0.0000 O   0  0  0  0  0  0  0  0  0  0  0  0
    5.5330   -6.2214    0.0000 C   0  0  2  0  0  0  0  0  0  0  0  0
    5.5019   -7.0458    0.0000 C   0  0  0  0  0  0  0  0  0  0  0  0
    4.7724   -7.4311    0.0000 C   0  0  1  0  0  0  0  0  0  0  0  0
    4.7413   -8.2555    0.0000 C   0  0  0  0  0  0  0  0  0  0  0  0
    4.0740   -6.9919    0.0000 C   0  0  0  0  0  0  0  0  0  0  0  0
    3.3445   -7.3772    0.0000 O   0  0  0  0  0  0  0  0  0  0  0  0
    2.6461   -6.9381    0.0000 C   0  0  1  0  0  0  0  0  0  0  0  0
    1.9165   -7.3234    0.0000 C   0  0  0  0  0  0  0  0  0  0  0  0
    1.2181   -6.8843    0.0000 C   0  0  2  0  0  0  0  0  0  0  0  0
    0.4886   -7.2695    0.0000 O   0  0  0  0  0  0  0  0  0  0  0  0
    0.4575   -8.0940    0.0000 C   0  0  0  0  0  0  0  0  0  0  0  0
    1.2492   -6.0598    0.0000 C   0  0  0  0  0  0  0  0  0  0  0  0
    0.5508   -5.6207    0.0000 O   0  0  0  0  0  0  0  0  0  0  0  0
    1.9787   -5.6746    0.0000 C   0  0  2  0  0  0  0  0  0  0  0  0
    2.0098   -4.8501    0.0000 C   0  0  0  0  0  0  0  0  0  0  0  0
    2.6771   -6.1137    0.0000 O   0  0  0  0  0  0  0  0  0  0  0  0
    4.1051   -6.1675    0.0000 C   0  0  2  0  0  0  0  0  0  0  0  0
    4.8346   -5.7822    0.0000 C   0  0  0  0  0  0  0  0  0  0  0  0
    3.4066   -5.7284    0.0000 O   0  0  0  0  0  0  0  0  0  0  0  0
    3.4377   -4.9040    0.0000 C   0  0  0  0  0  0  0  0  0  0  0  0
    5.4911   -4.8203    0.0000 C   0  0  0  0  0  0  0  0  0  0  0  0
    5.1469   -5.5701    0.0000 C   0  0  0  0  0  0  0  0  0  0  0  0
    4.8229   -4.3365    0.0000 C   0  0  0  0  0  0  0  0  0  0  0  0
    4.3907   -3.6337    0.0000 C   0  0  0  0  0  0  0  0  0  0  0  0
    4.2603   -2.8191    0.0000 C   0  0  0  0  0  0  0  0  0  0  0  0
    4.4517   -2.0166    0.0000 C   0  0  0  0  0  0  0  0  0  0  0  0
    3.6300   -1.9424    0.0000 C   0  0  0  0  0  0  0  0  0  0  0  0
    3.4467   -1.1380    0.0000 O   0  0  0  0  0  0  0  0  0  0  0  0
    4.1550   -0.7151    0.0000 C   0  0  0  0  0  0  0  0  0  0  0  0
    4.7761   -1.2581    0.0000 C   0  0  0  0  0  0  0  0  0  0  0  0
    5.5569   -0.9916    0.0000 C   0  0  1  0  0  0  0  0  0  0  0  0
    5.7166   -0.1822    0.0000 C   0  0  0  0  0  0  0  0  0  0  0  0
    5.0955    0.3607    0.0000 C   0  0  0  0  0  0  0  0  0  0  0  0
    5.2551    1.1701    0.0000 C   0  0  0  0  0  0  0  0  0  0  0  0
    4.3147    0.0943    0.0000 C   0  0  1  0  0  0  0  0  0  0  0  0
    3.6935    0.6373    0.0000 O   0  0  0  0  0  0  0  0  0  0  0  0
    6.4529   -0.7858    0.0000 C   0  0  0  0  0  0  0  0  0  0  0  0
    6.4563    0.0391    0.0000 O   0  0  0  0  0  0  0  0  0  0  0  0
    7.2554   -0.9772    0.0000 O   0  0  0  0  0  0  0  0  0  0  0  0
    9.1939   -2.5141    0.0000 O   0  0  0  0  0  0  0  0  0  0  0  0
    9.4707   -0.8875    0.0000 C   0  0  0  0  0  0  0  0  0  0  0  0
   10.2443   -0.6007    0.0000 C   0  0  0  0  0  0  0  0  0  0  0  0
   10.8794   -1.1273    0.0000 C   0  0  0  0  0  0  0  0  0  0  0  0
   11.6530   -0.8405    0.0000 C   0  0  0  0  0  0  0  0  0  0  0  0
  1  2  1  0  0  0  0
  2  3  1  0  0  0  0
  3  4  1  0  0  0  0
  4  5  1  0  0  0  0
  5  6  1  0  0  0  0
  6  7  1  0  0  0  0
  7  8  1  6  0  0  0
  8  9  1  0  0  0  0
  9 10  1  0  0  0  0
 10 11  1  0  0  0  0
 11 12  2  0  0  0  0
 12 13  1  0  0  0  0
 12 14  1  0  0  0  0
 14 15  1  0  0  0  0
 16 15  1  6  0  0  0
 16 17  1  0  0  0  0
 17 18  1  0  0  0  0
 18 19  1  1  0  0  0
 18 20  1  0  0  0  0
 20 21  1  0  0  0  0
 22 21  1  1  0  0  0
 22 23  1  0  0  0  0
 23 24  1  0  0  0  0
 24 25  1  6  0  0  0
 25 26  1  0  0  0  0
 24 27  1  0  0  0  0
 27 28  1  0  0  0  0
 27 29  1  0  0  0  0
 29 30  1  6  0  0  0
 29 31  1  0  0  0  0
 22 31  1  0  0  0  0
 20 32  1  0  0  0  0
 32 33  1  0  0  0  0
 16 33  1  0  0  0  0
 32 34  1  1  0  0  0
 34 35  1  0  0  0  0
 14 36  1  0  0  0  0
 36 37  1  0  0  0  0
 36 38  1  0  0  0  0
 38 39  2  0  0  0  0
 39 40  1  0  0  0  0
 40 41  2  0  0  0  0
 41 42  1  0  0  0  0
 42 43  1  0  0  0  0
 43 44  1  0  0  0  0
 44 45  1  0  0  0  0
 41 45  1  0  0  0  0
 45 46  1  0  0  0  0
 46 47  1  1  0  0  0
 47 48  2  0  0  0  0
 48 49  1  0  0  0  0
 48 50  1  0  0  0  0
 44 50  1  0  0  0  0
 50 51  1  6  0  0  0
 46 52  1  0  0  0  0
 52 53  2  0  0  0  0
 52 54  1  0  0  0  0
  7 54  1  0  0  0  0
  9 55  1  0  0  0  0
  5 55  1  0  0  0  0
  5 56  1  0  0  0  0
 56 57  2  0  0  0  0
 57 58  1  0  0  0  0
  3 58  1  0  0  0  0
 58 59  1  0  0  0  0
M  END

> <ChembankId>
3199703

> <SMILES>
CCC1OC2(C[C@@H]3CC(C/C=C(/C)\C(O[C@@H]4C[C@@H](C)C(O[C@H]5C[C@H](OC)C(O)[C@H](C)O5)[C@H](C4)OC)C(C)\C=C/C=C\6/COC7C6[C@@H](C=C(C)[C@H]7O)C(=O)O3)O2)C=CC1C

> <InChI>
1/C47H70O12/c1-10-36-25(2)16-17-47(59-36)23-34-20-32(58-47)15-14-27(4)43(26(3)12-11-13-31-24-53-45-40(31)35(46(50)56-34)19-28(5)41(45)48)55-33-18-29(6)44(38(21-33)52-9)57-39-22-37(51-8)42(49)30(7)54-39/h11-14,16-17,19,25-26,29-30,32-45,48-49H,10,15,18,20-24H2,1-9H3/b12-11-,27-14-,31-13-/t25-,26+,29+,30+,32-,33+,34-,35+,36+,37+,38-,39-,40+,41+,42+,43-,44-,45-,47-/m0/s1

$$$$
1108916
  Marvin  11101114202D          

 24 24  0  0  0  0            999 V2000
   -3.4048   -6.4210    0.0000 N   0  0  0  0  0  0  0  0  0  0  0  0
   -2.9923   -5.7065    0.0000 C   0  0  0  0  0  0  0  0  0  0  0  0
   -2.1673   -5.7065    0.0000 C   0  0  0  0  0  0  0  0  0  0  0  0
   -1.7548   -4.9921    0.0000 C   0  0  0  0  0  0  0  0  0  0  0  0
   -0.9298   -4.9921    0.0000 C   0  0  0  0  0  0  0  0  0  0  0  0
   -0.5173   -4.2776    0.0000 C   0  0  0  0  0  0  0  0  0  0  0  0
    0.3077   -4.2776    0.0000 N   0  0  0  0  0  0  0  0  0  0  0  0
    0.7202   -3.5631    0.0000 C   0  0  0  0  0  0  0  0  0  0  0  0
    0.3077   -2.8487    0.0000 O   0  0  0  0  0  0  0  0  0  0  0  0
    1.5452   -3.5631    0.0000 C   0  0  0  0  0  0  0  0  0  0  0  0
    1.9577   -2.8487    0.0000 C   0  0  0  0  0  0  0  0  0  0  0  0
    2.7827   -2.8487    0.0000 C   0  0  0  0  0  0  0  0  0  0  0  0
    3.2677   -2.1812    0.0000 C   0  0  0  0  0  0  0  0  0  0  0  0
    4.0523   -2.4362    0.0000 N   0  0  0  0  0  0  0  0  0  0  0  0
    4.0523   -3.2612    0.0000 C   0  0  0  0  0  0  0  0  0  0  0  0
    3.2677   -3.5161    0.0000 N   0  0  0  0  0  0  0  0  0  0  0  0
    1.9577   -4.2776    0.0000 N   0  0  0  0  0  0  0  0  0  0  0  0
    1.5452   -4.9921    0.0000 C   0  0  0  0  0  0  0  0  0  0  0  0
    0.7202   -4.9921    0.0000 O   0  0  0  0  0  0  0  0  0  0  0  0
    1.9577   -5.7065    0.0000 C   0  0  0  0  0  0  0  0  0  0  0  0
    1.5452   -6.4210    0.0000 N   0  0  0  0  0  0  0  0  0  0  0  0
   -0.9298   -3.5631    0.0000 C   0  0  0  0  0  0  0  0  0  0  0  0
   -0.5173   -2.8487    0.0000 O   0  0  0  0  0  0  0  0  0  0  0  0
   -1.7548   -3.5631    0.0000 O   0  0  0  0  0  0  0  0  0  0  0  0
  1  2  1  0  0  0  0
  2  3  1  0  0  0  0
  3  4  1  0  0  0  0
  4  5  1  0  0  0  0
  5  6  1  0  0  0  0
  6  7  1  0  0  0  0
  7  8  1  0  0  0  0
  8  9  2  0  0  0  0
  8 10  1  0  0  0  0
 10 11  1  0  0  0  0
 11 12  1  0  0  0  0
 12 13  4  0  0  0  0
 13 14  4  0  0  0  0
 14 15  4  0  0  0  0
 15 16  4  0  0  0  0
 12 16  4  0  0  0  0
 10 17  1  0  0  0  0
 17 18  1  0  0  0  0
 18 19  2  0  0  0  0
 18 20  1  0  0  0  0
 20 21  1  0  0  0  0
  6 22  1  0  0  0  0
 22 23  2  0  0  0  0
 22 24  1  0  0  0  0
M  STY  1   1 DAT
M  SAL   1  1  14
M  SDT   1 MRV_IMPLICIT_H                                        
M  SDD   1     0.0000    0.0000    DR    ALL  0       0  
M  SED   1 IMPL_H1
M  END

> <ChembankId>
1108916

> <SMILES>
NCCCCC(NC(=O)C(Cc1c[nH]cn1)NC(=O)CN)C(=O)O

> <InChI>
1/C14H24N6O4/c15-4-2-1-3-10(14(23)24)20-13(22)11(19-12(21)6-16)5-9-7-17-8-18-9/h7-8,10-11H,1-6,15-16H2,(H,17,18)(H,19,21)(H,20,22)(H,23,24)/t10-,11-/m0/s1

$$$$
1427041
  Marvin  11101114202D          

 24 28  0  0  0  0            999 V2000
    3.0706    0.7216    0.0000 C   0  0  0  0  0  0  0  0  0  0  0  0
    2.6581    0.0071    0.0000 C   0  0  0  0  0  0  0  0  0  0  0  0
    1.8331    0.0071    0.0000 N   0  0  0  0  0  0  0  0  0  0  0  0
    1.3482   -0.6604    0.0000 C   0  0  0  0  0  0  0  0  0  0  0  0
    1.5197   -1.4673    0.0000 C   0  0  0  0  0  0  0  0  0  0  0  0
    0.9066   -2.0194    0.0000 C   0  0  0  0  0  0  0  0  0  0  0  0
    0.1220   -1.7644    0.0000 C   0  0  0  0  0  0  0  0  0  0  0  0
   -0.0496   -0.9575    0.0000 C   0  0  0  0  0  0  0  0  0  0  0  0
    0.5635   -0.4054    0.0000 C   0  0  0  0  0  0  0  0  0  0  0  0
    0.5635    0.4196    0.0000 C   0  0  0  0  0  0  0  0  0  0  0  0
   -0.0496    0.9716    0.0000 C   0  0  0  0  0  0  0  0  0  0  0  0
    0.1220    1.7786    0.0000 C   0  0  0  0  0  0  0  0  0  0  0  0
    0.9066    2.0335    0.0000 C   0  0  0  0  0  0  0  0  0  0  0  0
    1.5197    1.4815    0.0000 C   0  0  0  0  0  0  0  0  0  0  0  0
    1.3482    0.6745    0.0000 C   0  0  0  0  0  0  0  0  0  0  0  0
    3.8956    0.7216    0.0000 C   0  0  0  0  0  0  0  0  0  0  0  0
    4.3805    1.3890    0.0000 N   0  0  0  0  0  0  0  0  0  0  0  0
    5.1651    1.1341    0.0000 C   0  0  0  0  0  0  0  0  0  0  0  0
    5.8796    1.5466    0.0000 C   0  0  0  0  0  0  0  0  0  0  0  0
    6.5941    1.1341    0.0000 C   0  0  0  0  0  0  0  0  0  0  0  0
    6.5941    0.3091    0.0000 C   0  0  0  0  0  0  0  0  0  0  0  0
    5.8796   -0.1034    0.0000 C   0  0  0  0  0  0  0  0  0  0  0  0
    5.1651    0.3091    0.0000 C   0  0  0  0  0  0  0  0  0  0  0  0
    4.3805    0.0541    0.0000 N   0  0  0  0  0  0  0  0  0  0  0  0
  1  2  1  0  0  0  0
  2  3  1  0  0  0  0
  3  4  4  0  0  0  0
  4  5  4  0  0  0  0
  5  6  4  0  0  0  0
  6  7  4  0  0  0  0
  7  8  4  0  0  0  0
  8  9  4  0  0  0  0
  4  9  4  0  0  0  0
  9 10  4  0  0  0  0
 10 11  4  0  0  0  0
 11 12  4  0  0  0  0
 12 13  4  0  0  0  0
 13 14  4  0  0  0  0
 14 15  4  0  0  0  0
  3 15  4  0  0  0  0
 10 15  4  0  0  0  0
  1 16  1  0  0  0  0
 16 17  4  0  0  0  0
 17 18  4  0  0  0  0
 18 19  4  0  0  0  0
 19 20  4  0  0  0  0
 20 21  4  0  0  0  0
 21 22  4  0  0  0  0
 22 23  4  0  0  0  0
 18 23  4  0  0  0  0
 23 24  4  0  0  0  0
 16 24  4  0  0  0  0
M  STY  1   1 DAT
M  SAL   1  1  24
M  SDT   1 MRV_IMPLICIT_H                                        
M  SDD   1     0.0000    0.0000    DR    ALL  0       0  
M  SED   1 IMPL_H1
M  END

> <ChembankId>
1427041

> <SMILES>
C(Cn1c2ccccc2c3ccccc13)c4nc5ccccc5[nH]4

> <InChI>
1/C21H17N3/c1-5-11-19-15(7-1)16-8-2-6-12-20(16)24(19)14-13-21-22-17-9-3-4-10-18(17)23-21/h1-12H,13-14H2,(H,22,23)

$$$$
605
  Marvin  11101114202D          

 31 35  0  0  0  0            999 V2000
    0.0333   -1.4613    0.0000 O   0  0  0  0  0  0  0  0  0  0  0  0
    0.7478   -1.0488    0.0000 C   0  0  0  0  0  0  0  0  0  0  0  0
    0.8341   -0.2284    0.0000 N   0  0  0  0  0  0  0  0  0  0  0  0
    1.6410   -0.0568    0.0000 C   0  0  0  0  0  0  0  0  0  0  0  0
    2.0535    0.6576    0.0000 C   0  0  0  0  0  0  0  0  0  0  0  0
    2.8785    0.6576    0.0000 C   0  0  0  0  0  0  0  0  0  0  0  0
    3.2910   -0.0568    0.0000 C   0  0  0  0  0  0  0  0  0  0  0  0
    4.0980   -0.2284    0.0000 N   0  0  0  0  0  0  0  0  0  0  0  0
    4.1842   -1.0488    0.0000 C   0  0  0  0  0  0  0  0  0  0  0  0
    3.4306   -1.3844    0.0000 S   0  0  0  0  0  0  0  0  0  0  0  0
    2.8785   -0.7713    0.0000 C   0  0  0  0  0  0  0  0  0  0  0  0
    2.0535   -0.7713    0.0000 C   0  0  0  0  0  0  0  0  0  0  0  0
    1.5015   -1.3844    0.0000 C   0  0  0  0  0  0  0  0  0  0  0  0
    1.6730   -2.1914    0.0000 C   0  0  0  0  0  0  0  0  0  0  0  0
    1.0599   -2.7434    0.0000 N   0  0  0  0  0  0  0  0  0  0  0  0
    1.2315   -3.5504    0.0000 C   0  0  0  0  0  0  0  0  0  0  0  0
    2.0161   -3.8053    0.0000 C   0  0  0  0  0  0  0  0  0  0  0  0
    2.1876   -4.6123    0.0000 C   0  0  0  0  0  0  0  0  0  0  0  0
    1.5745   -5.1643    0.0000 C   0  0  0  0  0  0  0  0  0  0  0  0
    0.7899   -4.9094    0.0000 C   0  0  0  0  0  0  0  0  0  0  0  0
    0.6184   -4.1024    0.0000 C   0  0  0  0  0  0  0  0  0  0  0  0
    1.7460   -5.9713    0.0000 S   0  0  0  0  0  0  0  0  0  0  0  0
    0.9391   -6.1428    0.0000 O   0  0  0  0  0  0  0  0  0  0  0  0
    2.5530   -5.7998    0.0000 O   0  0  0  0  0  0  0  0  0  0  0  0
    1.9176   -6.7783    0.0000 N   0  0  0  0  0  0  0  0  0  0  0  0
    1.3045   -7.3303    0.0000 C   0  0  0  0  0  0  0  0  0  0  0  0
    1.4760   -8.1373    0.0000 C   0  0  0  0  0  0  0  0  0  0  0  0
    0.8629   -8.6893    0.0000 C   0  0  0  0  0  0  0  0  0  0  0  0
    0.0783   -8.4344    0.0000 C   0  0  0  0  0  0  0  0  0  0  0  0
   -0.0932   -7.6274    0.0000 C   0  0  0  0  0  0  0  0  0  0  0  0
    0.5198   -7.0754    0.0000 N   0  0  0  0  0  0  0  0  0  0  0  0
  1  2  2  0  0  0  0
  2  3  1  0  0  0  0
  3  4  1  0  0  0  0
  4  5  4  0  0  0  0
  5  6  4  0  0  0  0
  6  7  4  0  0  0  0
  7  8  4  0  0  0  0
  8  9  4  0  0  0  0
  9 10  4  0  0  0  0
 10 11  4  0  0  0  0
  7 11  4  0  0  0  0
 11 12  4  0  0  0  0
  4 12  4  0  0  0  0
 12 13  1  0  0  0  0
  2 13  1  0  0  0  0
 13 14  2  0  0  0  0
 14 15  1  0  0  0  0
 15 16  1  0  0  0  0
 16 17  4  0  0  0  0
 17 18  4  0  0  0  0
 18 19  4  0  0  0  0
 19 20  4  0  0  0  0
 20 21  4  0  0  0  0
 16 21  4  0  0  0  0
 19 22  1  0  0  0  0
 22 23  2  0  0  0  0
 22 24  2  0  0  0  0
 22 25  1  0  0  0  0
 25 26  1  0  0  0  0
 26 27  4  0  0  0  0
 27 28  4  0  0  0  0
 28 29  4  0  0  0  0
 29 30  4  0  0  0  0
 30 31  4  0  0  0  0
 26 31  4  0  0  0  0
M  END

> <ChembankId>
605

> <SMILES>
O=C/1Nc2ccc3ncsc3c2\C1=C\Nc4ccc(cc4)S(=O)(=O)Nc5ccccn5

> <InChI>
1/C21H15N5O3S2/c27-21-15(19-16(25-21)8-9-17-20(19)30-12-24-17)11-23-13-4-6-14(7-5-13)31(28,29)26-18-3-1-2-10-22-18/h1-12,23H,(H,22,26)(H,25,27)

$$$$
828
  Marvin  11101114202D          

 42 44  0  0  1  0            999 V2000
    3.5724   -3.7125    0.0000 C   0  0  0  0  0  0  0  0  0  0  0  0
    2.8579   -4.1250    0.0000 C   0  0  0  0  0  0  0  0  0  0  0  0
    2.8579   -4.9500    0.0000 C   0  0  2  0  0  0  0  0  0  0  0  0
    2.1434   -5.3625    0.0000 C   0  0  0  0  0  0  0  0  0  0  0  0
    2.0572   -6.1830    0.0000 O   0  0  0  0  0  0  0  0  0  0  0  0
    1.2502   -6.3545    0.0000 C   0  0  1  0  0  0  0  0  0  0  0  0
    1.5051   -7.1391    0.0000 C   0  0  0  0  0  0  0  0  0  0  0  0
    0.9531   -7.7522    0.0000 C   0  0  0  0  0  0  0  0  0  0  0  0
    0.8377   -5.6400    0.0000 C   0  0  0  0  0  0  0  0  0  0  0  0
    1.3897   -5.0269    0.0000 C   0  0  2  0  0  0  0  0  0  0  0  0
    1.2182   -4.2200    0.0000 C   0  0  0  0  0  0  0  0  0  0  0  0
    0.4965   -6.6901    0.0000 C   0  0  0  0  0  0  0  0  0  0  0  0
    0.4103   -7.5105    0.0000 C   0  0  0  0  0  0  0  0  0  0  0  0
   -0.3434   -7.8461    0.0000 C   0  0  0  0  0  0  0  0  0  0  0  0
   -1.0108   -7.3612    0.0000 C   0  0  2  0  0  0  0  0  0  0  0  0
   -1.3725   -8.1027    0.0000 O   0  0  0  0  0  0  0  0  0  0  0  0
   -1.8039   -7.1338    0.0000 C   0  0  0  0  0  0  0  0  0  0  0  0
   -2.3973   -7.7069    0.0000 C   0  0  0  0  0  0  0  0  0  0  0  0
   -0.9246   -6.5407    0.0000 C   0  0  2  0  0  0  0  0  0  0  0  0
   -1.5920   -6.0558    0.0000 C   0  0  0  0  0  0  0  0  0  0  0  0
   -0.1709   -6.2051    0.0000 O   0  0  0  0  0  0  0  0  0  0  0  0
    3.5724   -5.3625    0.0000 C   0  0  0  0  0  0  0  0  0  0  0  0
    3.5724   -6.1875    0.0000 O   0  0  0  0  0  0  0  0  0  0  0  0
    4.2868   -4.9500    0.0000 C   0  0  1  0  0  0  0  0  0  0  0  0
    4.2868   -4.1250    0.0000 C   0  0  0  0  0  0  0  0  0  0  0  0
    5.0013   -5.3625    0.0000 C   0  0  1  0  0  0  0  0  0  0  0  0
    5.0013   -6.1875    0.0000 O   0  0  0  0  0  0  0  0  0  0  0  0
    5.7158   -4.9500    0.0000 C   0  0  2  0  0  0  0  0  0  0  0  0
    5.7158   -4.1250    0.0000 C   0  0  0  0  0  0  0  0  0  0  0  0
    6.4302   -5.3625    0.0000 C   0  0  0  0  0  0  0  0  0  0  0  0
    7.1447   -4.9500    0.0000 C   0  0  0  0  0  0  0  0  0  0  0  0
    7.8592   -5.3625    0.0000 C   0  0  0  0  0  0  0  0  0  0  0  0
    8.5737   -4.9500    0.0000 C   0  0  0  0  0  0  0  0  0  0  0  0
    9.2881   -5.3625    0.0000 C   0  0  0  0  0  0  0  0  0  0  0  0
    9.2881   -6.1875    0.0000 C   0  0  0  0  0  0  0  0  0  0  0  0
   10.0026   -6.6000    0.0000 C   0  0  0  0  0  0  0  0  0  0  0  0
    8.5737   -6.6000    0.0000 C   0  0  0  0  0  0  0  0  0  0  0  0
    8.5737   -7.4250    0.0000 O   0  0  0  0  0  0  0  0  0  0  0  0
    7.8592   -6.1875    0.0000 C   0  0  0  0  0  0  0  0  0  0  0  0
    7.1447   -6.6000    0.0000 C   0  0  0  0  0  0  0  0  0  0  0  0
    6.4302   -6.1875    0.0000 O   0  0  0  0  0  0  0  0  0  0  0  0
    7.1447   -7.4250    0.0000 O   0  0  0  0  0  0  0  0  0  0  0  0
  1  2  1  0  0  0  0
  2  3  1  0  0  0  0
  3  4  1  0  0  0  0
  4  5  1  0  0  0  0
  5  6  1  0  0  0  0
  6  7  1  1  0  0  0
  7  8  1  0  0  0  0
  6  9  1  0  0  0  0
  9 10  1  0  0  0  0
  4 10  1  0  0  0  0
 10 11  1  6  0  0  0
  6 12  1  6  0  0  0
 12 13  1  0  0  0  0
 13 14  1  0  0  0  0
 14 15  1  0  0  0  0
 15 16  1  1  0  0  0
 15 17  1  6  0  0  0
 17 18  1  0  0  0  0
 15 19  1  0  0  0  0
 19 20  1  6  0  0  0
 19 21  1  0  0  0  0
 12 21  1  0  0  0  0
  3 22  1  1  0  0  0
 22 23  2  0  0  0  0
 22 24  1  0  0  0  0
 24 25  1  1  0  0  0
 24 26  1  0  0  0  0
 26 27  1  6  0  0  0
 26 28  1  0  0  0  0
 28 29  1  6  0  0  0
 28 30  1  0  0  0  0
 30 31  1  0  0  0  0
 31 32  1  0  0  0  0
 32 33  4  0  0  0  0
 33 34  4  0  0  0  0
 34 35  4  0  0  0  0
 35 36  1  0  0  0  0
 35 37  4  0  0  0  0
 37 38  1  0  0  0  0
 37 39  4  0  0  0  0
 32 39  4  0  0  0  0
 39 40  1  0  0  0  0
 40 41  2  0  0  0  0
 40 42  1  0  0  0  0
M  END

> <ChembankId>
828

> <SMILES>
CC[C@H](C1O[C@@](CC)(C[C@@H]1C)C2CC[C@](O)(CC)[C@H](C)O2)C(=O)[C@@H](C)[C@@H](O)[C@H](C)CCc3ccc(C)c(O)c3C(=O)O

> <InChI>
1/C34H54O8/c1-9-25(31-21(6)18-34(11-3,42-31)26-16-17-33(40,10-2)23(8)41-26)30(37)22(7)28(35)19(4)12-14-24-15-13-20(5)29(36)27(24)32(38)39/h13,15,19,21-23,25-26,28,31,35-36,40H,9-12,14,16-18H2,1-8H3,(H,38,39)

$$$$
1423
  Marvin  11101114202D          

 56 62  0  0  1  0            999 V2000
    4.6683   -6.0101    0.0000 C   0  0  0  0  0  0  0  0  0  0  0  0
    5.0820   -5.2964    0.0000 C   0  0  0  0  0  0  0  0  0  0  0  0
    4.6688   -4.5777    0.0000 C   0  0  0  0  0  0  0  0  0  0  0  0
    3.8778   -4.8121    0.0000 C   0  0  0  0  0  0  0  0  0  0  0  0
    4.8621   -3.7721    0.0000 C   0  0  0  0  0  0  0  0  0  0  0  0
    5.5608   -4.2108    0.0000 O   0  0  0  0  0  0  0  0  0  0  0  0
    4.8928   -2.9416    0.0000 O   0  0  0  0  0  0  0  0  0  0  0  0
    4.9207   -2.0569    0.0000 C   0  0  1  0  0  0  0  0  0  0  0  0
    5.7447   -2.0171    0.0000 C   0  0  2  0  0  0  0  0  0  0  0  0
    6.2081   -2.7481    0.0000 O   0  0  0  0  0  0  0  0  0  0  0  0
    6.1223   -1.2836    0.0000 C   0  0  0  0  0  0  0  0  0  0  0  0
    5.6758   -0.5899    0.0000 C   0  0  0  0  0  0  0  0  0  0  0  0
    6.0533    0.1437    0.0000 C   0  0  0  0  0  0  0  0  0  0  0  0
    6.8774    0.1835    0.0000 N   0  0  0  0  0  0  0  0  0  0  0  0
    7.2549    0.9170    0.0000 C   0  0  0  0  0  0  0  0  0  0  0  0
    8.0790    0.9568    0.0000 C   0  0  0  0  0  0  0  0  0  0  0  0
    8.5609    1.6380    0.0000 C   0  0  0  0  0  0  0  0  0  0  0  0
    8.5254    0.2631    0.0000 C   0  0  0  0  0  0  0  0  0  0  0  0
    8.1479   -0.4705    0.0000 C   0  0  0  0  0  0  0  0  0  0  0  0
    7.3239   -0.5103    0.0000 C   0  0  0  0  0  0  0  0  0  0  0  0
    6.9463   -1.2438    0.0000 C   0  0  2  0  0  0  0  0  0  0  0  0
    7.1421   -1.8697    0.0000 C   0  0  0  0  0  0  0  0  0  0  0  0
    7.5199   -1.9041    0.0000 O   0  0  0  0  0  0  0  0  0  0  0  0
    4.8517   -0.6297    0.0000 C   0  0  0  0  0  0  0  0  0  0  0  0
    4.2396   -0.0506    0.0000 C   0  0  0  0  0  0  0  0  0  0  0  0
    3.4529   -0.3968    0.0000 C   0  0  1  0  0  0  0  0  0  0  0  0
    3.0305    0.3571    0.0000 O   0  0  0  0  0  0  0  0  0  0  0  0
    2.0318   -0.1643    0.0000 C   0  0  1  0  0  0  0  0  0  0  0  0
    1.2528   -0.5178    0.0000 O   0  0  0  0  0  0  0  0  0  0  0  0
    2.1819   -0.7272    0.0000 C   0  0  0  0  0  0  0  0  0  0  0  0
    2.2182   -1.5488    0.0000 C   0  0  1  0  0  0  0  0  0  0  0  0
    1.4513   -1.9655    0.0000 O   0  0  0  0  0  0  0  0  0  0  0  0
    0.6118   -2.1830    0.0000 C   0  0  0  0  0  0  0  0  0  0  0  0
    0.3918   -2.9782    0.0000 O   0  0  0  0  0  0  0  0  0  0  0  0
    0.0333   -1.5949    0.0000 C   0  0  0  0  0  0  0  0  0  0  0  0
    2.9985   -1.7869    0.0000 C   0  0  1  0  0  0  0  0  0  0  0  0
    2.7968   -2.5882    0.0000 O   0  0  0  0  0  0  0  0  0  0  0  0
    2.5726   -3.3720    0.0000 C   0  0  0  0  0  0  0  0  0  0  0  0
    3.1461   -3.9651    0.0000 O   0  0  0  0  0  0  0  0  0  0  0  0
    1.7722   -3.5721    0.0000 C   0  0  0  0  0  0  0  0  0  0  0  0
    3.6420   -1.2504    0.0000 C   0  0  0  0  0  0  0  0  0  0  0  0
    4.4742   -1.3632    0.0000 C   0  0  2  0  0  0  0  0  0  0  0  0
    4.0575   -2.1440    0.0000 O   0  0  0  0  0  0  0  0  0  0  0  0
    2.7398    0.0357    0.0000 C   0  0  1  0  0  0  0  0  0  0  0  0
    2.2630    0.9285    0.0000 C   0  0  0  0  0  0  0  0  0  0  0  0
    2.5574    0.9029    0.0000 C   0  0  0  0  0  0  0  0  0  0  0  0
    1.7354    1.0052    0.0000 C   0  0  0  0  0  0  0  0  0  0  0  0
    1.2950    0.2874    0.0000 C   0  0  0  0  0  0  0  0  0  0  0  0
    0.4315    0.3657    0.0000 O   0  0  0  0  0  0  0  0  0  0  0  0
   -0.2586    0.8418    0.0000 C   0  0  0  0  0  0  0  0  0  0  0  0
   -1.0171    0.5173    0.0000 O   0  0  0  0  0  0  0  0  0  0  0  0
   -0.1550    1.7053    0.0000 C   0  0  0  0  0  0  0  0  0  0  0  0
    0.5726    1.3165    0.0000 C   0  0  0  0  0  0  0  0  0  0  0  0
   -0.8827    2.0940    0.0000 O   0  0  0  0  0  0  0  0  0  0  0  0
    0.2376    2.4402    0.0000 C   0  0  0  0  0  0  0  0  0  0  0  0
    1.0621    2.4673    0.0000 C   0  0  0  0  0  0  0  0  0  0  0  0
  1  2  1  0  0  0  0
  2  3  1  0  0  0  0
  3  4  1  0  0  0  0
  3  5  1  0  0  0  0
  5  6  2  0  0  0  0
  5  7  1  0  0  0  0
  8  7  1  6  0  0  0
  8  9  1  0  0  0  0
  9 10  1  1  0  0  0
  9 11  1  0  0  0  0
 11 12  1  0  0  0  0
 12 13  1  0  0  0  0
 13 14  1  0  0  0  0
 14 15  1  0  0  0  0
 15 16  1  0  0  0  0
 16 17  1  0  0  0  0
 16 18  1  0  0  0  0
 18 19  1  0  0  0  0
 19 20  1  0  0  0  0
 14 20  1  0  0  0  0
 20 21  1  0  0  0  0
 11 21  1  0  0  0  0
 21 22  1  6  0  0  0
 21 23  1  1  0  0  0
 12 24  1  0  0  0  0
 24 25  1  0  0  0  0
 25 26  1  0  0  0  0
 26 27  1  6  0  0  0
 27 28  1  0  0  0  0
 28 29  1  6  0  0  0
 28 30  1  0  0  0  0
 30 31  1  0  0  0  0
 31 32  1  6  0  0  0
 32 33  1  0  0  0  0
 33 34  2  0  0  0  0
 33 35  1  0  0  0  0
 31 36  1  0  0  0  0
 36 37  1  6  0  0  0
 37 38  1  0  0  0  0
 38 39  2  0  0  0  0
 38 40  1  0  0  0  0
 36 41  1  0  0  0  0
 26 41  1  0  0  0  0
 41 42  1  0  0  0  0
 24 42  1  0  0  0  0
  8 42  1  0  0  0  0
 42 43  1  6  0  0  0
 26 44  1  0  0  0  0
 30 44  1  0  0  0  0
 44 45  1  1  0  0  0
 44 46  1  0  0  0  0
 46 47  1  0  0  0  0
 47 48  1  0  0  0  0
 28 48  1  0  0  0  0
 48 49  1  0  0  0  0
 49 50  1  0  0  0  0
 50 51  2  0  0  0  0
 50 52  1  0  0  0  0
 52 53  1  0  0  0  0
 52 54  1  0  0  0  0
 52 55  1  0  0  0  0
 55 56  1  0  0  0  0
M  END

> <ChembankId>
1423

> <SMILES>
CCC(C)C(=O)O[C@H]1[C@H](O)C2C(CN3CC(C)CCC3[C@@]2(C)O)C4C[C@]5(O[C@@]6(O)C7[C@@H](OC(=O)C)[C@@H](OC(=O)C)C5[C@@]41O)[C@@]7(C)CCC6OC(=O)C(C)(O)CC

> <InChI>
1/C41H63NO14/c1-10-20(4)34(46)55-33-28(45)27-23(18-42-17-19(3)12-13-25(42)38(27,9)49)24-16-39-32(40(24,33)50)30(53-22(6)44)29(52-21(5)43)31-36(39,7)15-14-26(41(31,51)56-39)54-35(47)37(8,48)11-2/h19-20,23-33,45,48-51H,10-18H2,1-9H3

$$$$
1749
  Marvin  11101114202D          

 32 35  0  0  1  0            999 V2000
   -2.2649    1.9689    0.0000 C   0  0  0  0  0  0  0  0  0  0  0  0
   -1.4680    2.1825    0.0000 O   0  0  0  0  0  0  0  0  0  0  0  0
   -0.8846    1.5991    0.0000 N   0  0  0  0  0  0  0  0  0  0  0  0
   -0.0877    1.8126    0.0000 C   0  0  0  0  0  0  0  0  0  0  0  0
    0.4956    1.2293    0.0000 C   0  0  0  0  0  0  0  0  0  0  0  0
    1.2925    1.4428    0.0000 O   0  0  0  0  0  0  0  0  0  0  0  0
    0.2821    0.4324    0.0000 N   0  0  0  0  0  0  0  0  0  0  0  0
    0.8655   -0.1510    0.0000 C   0  0  2  0  0  0  0  0  0  0  0  0
    1.6905   -0.1510    0.0000 C   0  0  1  0  0  0  0  0  0  0  0  0
    2.4049    0.2615    0.0000 S   0  0  0  0  0  0  0  0  0  0  0  0
    3.1194   -0.1510    0.0000 C   0  0  0  0  0  0  0  0  0  0  0  0
    3.1194   -0.9760    0.0000 C   0  0  0  0  0  0  0  0  0  0  0  0
    2.4049   -1.3885    0.0000 C   0  0  0  0  0  0  0  0  0  0  0  0
    1.6905   -0.9760    0.0000 N   0  0  0  0  0  0  0  0  0  0  0  0
    0.8655   -0.9760    0.0000 C   0  0  0  0  0  0  0  0  0  0  0  0
    0.2821   -1.5593    0.0000 O   0  0  0  0  0  0  0  0  0  0  0  0
    2.4049   -2.2135    0.0000 C   0  0  0  0  0  0  0  0  0  0  0  0
    1.6905   -2.6260    0.0000 O   0  0  0  0  0  0  0  0  0  0  0  0
    3.1194   -2.6260    0.0000 O   0  0  0  0  0  0  0  0  0  0  0  0
    3.8339   -1.3885    0.0000 C   0  0  0  0  0  0  0  0  0  0  0  0
    3.8339   -2.2135    0.0000 N   0  3  0  0  0  0  0  0  0  0  0  0
    3.0134   -2.1272    0.0000 C   0  0  0  0  0  0  0  0  0  0  0  0
    4.6543   -2.1272    0.0000 C   0  0  0  0  0  0  0  0  0  0  0  0
    4.9899   -2.8809    0.0000 C   0  0  0  0  0  0  0  0  0  0  0  0
    4.3768   -3.4330    0.0000 C   0  0  0  0  0  0  0  0  0  0  0  0
    3.6623   -3.0205    0.0000 C   0  0  0  0  0  0  0  0  0  0  0  0
    0.1258    2.6095    0.0000 C   0  0  0  0  0  0  0  0  0  0  0  0
   -0.3934    3.2507    0.0000 C   0  0  0  0  0  0  0  0  0  0  0  0
    0.0559    3.9426    0.0000 S   0  0  0  0  0  0  0  0  0  0  0  0
    0.8528    3.7290    0.0000 C   0  0  0  0  0  0  0  0  0  0  0  0
    1.4940    4.2482    0.0000 N   0  0  0  0  0  0  0  0  0  0  0  0
    0.8960    2.9052    0.0000 N   0  0  0  0  0  0  0  0  0  0  0  0
  1  2  1  0  0  0  0
  3  2  1  4  0  0  0
  3  4  2  0  0  0  0
  4  5  1  0  0  0  0
  5  6  2  0  0  0  0
  5  7  1  0  0  0  0
  8  7  1  6  0  0  0
  8  9  1  0  0  0  0
  9 10  1  0  0  0  0
 10 11  1  0  0  0  0
 11 12  1  0  0  0  0
 12 13  2  0  0  0  0
 13 14  1  0  0  0  0
  9 14  1  1  0  0  0
 14 15  1  0  0  0  0
  8 15  1  0  0  0  0
 15 16  2  0  0  0  0
 13 17  1  0  0  0  0
 17 18  2  0  0  0  0
 17 19  1  0  0  0  0
 12 20  1  0  0  0  0
 20 21  1  0  0  0  0
 21 22  1  0  0  0  0
 21 23  1  0  0  0  0
 23 24  1  0  0  0  0
 24 25  1  0  0  0  0
 25 26  1  0  0  0  0
 21 26  1  0  0  0  0
  4 27  1  0  0  0  0
 27 28  4  0  0  0  0
 28 29  4  0  0  0  0
 29 30  4  0  0  0  0
 30 31  1  0  0  0  0
 30 32  4  0  0  0  0
 27 32  4  0  0  0  0
M  CHG  1  21   1
M  END

> <ChembankId>
1749

> <SMILES>
CON=C(C(=O)N[C@@H]1[C@H]2SCC(=C(N2C1=O)C(=O)O)C[N+]3(C)CCCC3)c4csc(N)n4

> <InChI>
1/C19H24N6O5S2/c1-25(5-3-4-6-25)7-10-8-31-17-13(16(27)24(17)14(10)18(28)29)22-15(26)12(23-30-2)11-9-32-19(20)21-11/h9,13,17H,3-8H2,1-2H3,(H3-,20,21,22,26,28,29)/p+1

$$$$
1840
  Marvin  11101114202D          

 62 63  0  0  1  0            999 V2000
    0.7145   -2.0625    0.0000 C   0  0  0  0  0  0  0  0  0  0  0  0
    0.0000   -1.6500    0.0000 C   0  0  0  0  0  0  0  0  0  0  0  0
   -0.7145   -2.0625    0.0000 O   0  0  0  0  0  0  0  0  0  0  0  0
    0.0000   -0.8250    0.0000 N   0  0  0  0  0  0  0  0  0  0  0  0
    0.7145   -0.4125    0.0000 C   0  0  0  0  0  0  0  0  0  0  0  0
    1.4289   -0.8250    0.0000 C   0  0  0  0  0  0  0  0  0  0  0  0
    1.4289   -1.6500    0.0000 O   0  0  0  0  0  0  0  0  0  0  0  0
    2.1434   -0.4125    0.0000 C   0  0  0  0  0  0  0  0  0  0  0  0
    2.8579   -0.8250    0.0000 N   0  0  0  0  0  0  0  0  0  0  0  0
    2.8579   -1.6500    0.0000 C   0  0  0  0  0  0  0  0  0  0  0  0
    3.5724   -2.0625    0.0000 O   0  0  0  0  0  0  0  0  0  0  0  0
    2.1434   -2.0625    0.0000 C   0  0  0  0  0  0  0  0  0  0  0  0
    3.5724   -0.4125    0.0000 C   0  0  0  0  0  0  0  0  0  0  0  0
    3.5724    0.4125    0.0000 C   0  0  0  0  0  0  0  0  0  0  0  0
    2.8579    0.8250    0.0000 I   0  0  0  0  0  0  0  0  0  0  0  0
    4.2868    0.8250    0.0000 C   0  0  0  0  0  0  0  0  0  0  0  0
    4.2868    1.6500    0.0000 C   0  0  0  0  0  0  0  0  0  0  0  0
    3.5724    2.0625    0.0000 O   0  0  0  0  0  0  0  0  0  0  0  0
    5.0013    2.0625    0.0000 N   0  0  0  0  0  0  0  0  0  0  0  0
    5.0013    2.8875    0.0000 C   0  0  0  0  0  0  0  0  0  0  0  0
    5.7158    3.3000    0.0000 C   0  0  1  0  0  0  0  0  0  0  0  0
    6.4302    2.8875    0.0000 O   0  0  0  0  0  0  0  0  0  0  0  0
    5.7158    4.1250    0.0000 C   0  0  0  0  0  0  0  0  0  0  0  0
    6.4302    4.5375    0.0000 O   0  0  0  0  0  0  0  0  0  0  0  0
    5.0013    0.4125    0.0000 C   0  0  0  0  0  0  0  0  0  0  0  0
    5.7158    0.8250    0.0000 I   0  0  0  0  0  0  0  0  0  0  0  0
    5.0013   -0.4125    0.0000 C   0  0  0  0  0  0  0  0  0  0  0  0
    5.7158   -0.8250    0.0000 C   0  0  0  0  0  0  0  0  0  0  0  0
    6.4302   -0.4125    0.0000 O   0  0  0  0  0  0  0  0  0  0  0  0
    5.7158   -1.6500    0.0000 N   0  0  0  0  0  0  0  0  0  0  0  0
    6.4302   -2.0625    0.0000 C   0  0  0  0  0  0  0  0  0  0  0  0
    6.4302   -2.8875    0.0000 C   0  0  1  0  0  0  0  0  0  0  0  0
    5.7158   -3.3000    0.0000 O   0  0  0  0  0  0  0  0  0  0  0  0
    7.1447   -3.3000    0.0000 C   0  0  0  0  0  0  0  0  0  0  0  0
    7.1447   -4.1250    0.0000 O   0  0  0  0  0  0  0  0  0  0  0  0
    4.2868   -0.8250    0.0000 C   0  0  0  0  0  0  0  0  0  0  0  0
    4.2868   -1.6500    0.0000 I   0  0  0  0  0  0  0  0  0  0  0  0
   -0.7145   -0.4125    0.0000 C   0  0  0  0  0  0  0  0  0  0  0  0
   -1.4289   -0.8250    0.0000 C   0  0  0  0  0  0  0  0  0  0  0  0
   -1.4289   -1.6500    0.0000 I   0  0  0  0  0  0  0  0  0  0  0  0
   -2.1434   -0.4125    0.0000 C   0  0  0  0  0  0  0  0  0  0  0  0
   -2.8579   -0.8250    0.0000 C   0  0  0  0  0  0  0  0  0  0  0  0
   -3.5724   -0.4125    0.0000 O   0  0  0  0  0  0  0  0  0  0  0  0
   -2.8579   -1.6500    0.0000 N   0  0  0  0  0  0  0  0  0  0  0  0
   -3.5724   -2.0625    0.0000 C   0  0  0  0  0  0  0  0  0  0  0  0
   -3.5724   -2.8875    0.0000 C   0  0  1  0  0  0  0  0  0  0  0  0
   -2.8579   -3.3000    0.0000 O   0  0  0  0  0  0  0  0  0  0  0  0
   -4.2868   -3.3000    0.0000 C   0  0  0  0  0  0  0  0  0  0  0  0
   -4.2868   -4.1250    0.0000 O   0  0  0  0  0  0  0  0  0  0  0  0
   -2.1434    0.4125    0.0000 C   0  0  0  0  0  0  0  0  0  0  0  0
   -2.8579    0.8250    0.0000 I   0  0  0  0  0  0  0  0  0  0  0  0
   -1.4289    0.8250    0.0000 C   0  0  0  0  0  0  0  0  0  0  0  0
   -1.4289    1.6500    0.0000 C   0  0  0  0  0  0  0  0  0  0  0  0
   -2.1434    2.0625    0.0000 O   0  0  0  0  0  0  0  0  0  0  0  0
   -0.7145    2.0625    0.0000 N   0  0  0  0  0  0  0  0  0  0  0  0
   -0.7145    2.8875    0.0000 C   0  0  0  0  0  0  0  0  0  0  0  0
    0.0000    3.3000    0.0000 C   0  0  1  0  0  0  0  0  0  0  0  0
    0.7145    2.8875    0.0000 O   0  0  0  0  0  0  0  0  0  0  0  0
    0.0000    4.1250    0.0000 C   0  0  0  0  0  0  0  0  0  0  0  0
    0.7145    4.5375    0.0000 O   0  0  0  0  0  0  0  0  0  0  0  0
   -0.7145    0.4125    0.0000 C   0  0  0  0  0  0  0  0  0  0  0  0
    0.0000    0.8250    0.0000 I   0  0  0  0  0  0  0  0  0  0  0  0
  1  2  1  0  0  0  0
  2  3  2  0  0  0  0
  2  4  1  0  0  0  0
  4  5  1  0  0  0  0
  5  6  1  0  0  0  0
  6  7  1  0  0  0  0
  6  8  1  0  0  0  0
  8  9  1  0  0  0  0
  9 10  1  0  0  0  0
 10 11  2  0  0  0  0
 10 12  1  0  0  0  0
  9 13  1  0  0  0  0
 13 14  4  0  0  0  0
 14 15  1  0  0  0  0
 14 16  4  0  0  0  0
 16 17  1  0  0  0  0
 17 18  2  0  0  0  0
 17 19  1  0  0  0  0
 19 20  1  0  0  0  0
 20 21  1  0  0  0  0
 21 22  1  6  0  0  0
 21 23  1  0  0  0  0
 23 24  1  0  0  0  0
 16 25  4  0  0  0  0
 25 26  1  0  0  0  0
 25 27  4  0  0  0  0
 27 28  1  0  0  0  0
 28 29  2  0  0  0  0
 28 30  1  0  0  0  0
 30 31  1  0  0  0  0
 31 32  1  0  0  0  0
 32 33  1  6  0  0  0
 32 34  1  0  0  0  0
 34 35  1  0  0  0  0
 27 36  4  0  0  0  0
 13 36  4  0  0  0  0
 36 37  1  0  0  0  0
  4 38  1  0  0  0  0
 38 39  4  0  0  0  0
 39 40  1  0  0  0  0
 39 41  4  0  0  0  0
 41 42  1  0  0  0  0
 42 43  2  0  0  0  0
 42 44  1  0  0  0  0
 44 45  1  0  0  0  0
 45 46  1  0  0  0  0
 46 47  1  1  0  0  0
 46 48  1  0  0  0  0
 48 49  1  0  0  0  0
 41 50  4  0  0  0  0
 50 51  1  0  0  0  0
 50 52  4  0  0  0  0
 52 53  1  0  0  0  0
 53 54  2  0  0  0  0
 53 55  1  0  0  0  0
 55 56  1  0  0  0  0
 56 57  1  0  0  0  0
 57 58  1  6  0  0  0
 57 59  1  0  0  0  0
 59 60  1  0  0  0  0
 52 61  4  0  0  0  0
 38 61  4  0  0  0  0
 61 62  1  0  0  0  0
M  END

> <ChembankId>
1840

> <SMILES>
CC(=O)N(CC(O)CN(C(=O)C)c1c(I)c(C(=O)NC[C@@H](O)CO)c(I)c(C(=O)NC[C@@H](O)CO)c1I)c2c(I)c(C(=O)NC[C@@H](O)CO)c(I)c(C(=O)NC[C@@H](O)CO)c2I

> <InChI>
1/C35H44I6N6O15/c1-13(52)46(30-26(38)20(32(59)42-3-15(54)9-48)24(36)21(27(30)39)33(60)43-4-16(55)10-49)7-19(58)8-47(14(2)53)31-28(40)22(34(61)44-5-17(56)11-50)25(37)23(29(31)41)35(62)45-6-18(57)12-51/h15-19,48-51,54-58H,3-12H2,1-2H3,(H,42,59)(H,43,60)(H,44,61)(H,45,62)

$$$$
3725
  Marvin  11101114202D          

 20 22  0  0  0  0            999 V2000
    1.4289    7.1786    0.0000 S   0  0  0  0  0  0  0  0  0  0  0  0
    0.7145    6.7661    0.0000 C   0  0  0  0  0  0  0  0  0  0  0  0
   -0.0000    7.1786    0.0000 N   0  0  0  0  0  0  0  0  0  0  0  0
   -0.0000    8.0036    0.0000 C   0  0  0  0  0  0  0  0  0  0  0  0
   -0.7145    8.4161    0.0000 C   0  0  0  0  0  0  0  0  0  0  0  0
   -0.7145    9.2411    0.0000 C   0  0  0  0  0  0  0  0  0  0  0  0
   -0.0000    9.6536    0.0000 C   0  0  0  0  0  0  0  0  0  0  0  0
    0.7145    9.2411    0.0000 C   0  0  0  0  0  0  0  0  0  0  0  0
    0.7145    8.4161    0.0000 C   0  0  0  0  0  0  0  0  0  0  0  0
    0.7145    5.9411    0.0000 N   0  0  0  0  0  0  0  0  0  0  0  0
    1.4289    5.5286    0.0000 C   0  0  0  0  0  0  0  0  0  0  0  0
    1.4289    4.7036    0.0000 C   0  0  0  0  0  0  0  0  0  0  0  0
    0.7145    4.2911    0.0000 C   0  0  0  0  0  0  0  0  0  0  0  0
    0.0000    4.7036    0.0000 C   0  0  0  0  0  0  0  0  0  0  0  0
   -0.0000    5.5286    0.0000 C   0  0  0  0  0  0  0  0  0  0  0  0
    0.7145    3.4661    0.0000 C   0  0  0  0  0  0  0  0  0  0  0  0
    1.3819    2.9812    0.0000 C   0  0  0  0  0  0  0  0  0  0  0  0
    1.1270    2.1965    0.0000 N   0  0  0  0  0  0  0  0  0  0  0  0
    0.3020    2.1965    0.0000 C   0  0  0  0  0  0  0  0  0  0  0  0
    0.0470    2.9812    0.0000 N   0  0  0  0  0  0  0  0  0  0  0  0
  1  2  2  0  0  0  0
  2  3  1  0  0  0  0
  3  4  1  0  0  0  0
  4  5  1  0  0  0  0
  5  6  1  0  0  0  0
  6  7  1  0  0  0  0
  7  8  1  0  0  0  0
  8  9  1  0  0  0  0
  4  9  1  0  0  0  0
  2 10  1  0  0  0  0
 10 11  1  0  0  0  0
 11 12  1  0  0  0  0
 12 13  1  0  0  0  0
 13 14  1  0  0  0  0
 14 15  1  0  0  0  0
 10 15  1  0  0  0  0
 13 16  1  0  0  0  0
 16 17  4  0  0  0  0
 17 18  4  0  0  0  0
 18 19  4  0  0  0  0
 19 20  4  0  0  0  0
 16 20  4  0  0  0  0
M  STY  1   1 DAT
M  SAL   1  1  20
M  SDT   1 MRV_IMPLICIT_H                                        
M  SDD   1     0.0000    0.0000    DR    ALL  0       0  
M  SED   1 IMPL_H1
M  END

> <ChembankId>
3725

> <SMILES>
S=C(NC1CCCCC1)N2CCC(CC2)c3cnc[nH]3

> <InChI>
1/C15H24N4S/c20-15(18-13-4-2-1-3-5-13)19-8-6-12(7-9-19)14-10-16-11-17-14/h10-13H,1-9H2,(H,16,17)(H,18,20)

$$$$
3552120
  Marvin  11101114202D          

 35 38  0  0  1  0            999 V2000
    1.4743   -2.1191    0.0000 C   0  0  0  0  0  0  0  0  0  0  0  0
    1.1387   -1.3654    0.0000 C   0  0  2  0  0  0  0  0  0  0  0  0
    0.6538   -0.6979    0.0000 C   0  0  0  0  0  0  0  0  0  0  0  0
    1.1387   -0.0305    0.0000 C   0  0  1  0  0  0  0  0  0  0  0  0
    0.8838    0.7541    0.0000 O   0  0  0  0  0  0  0  0  0  0  0  0
    1.9233   -0.2854    0.0000 C   0  0  2  0  0  0  0  0  0  0  0  0
    1.8371    0.5350    0.0000 O   0  0  0  0  0  0  0  0  0  0  0  0
    2.6378    0.1271    0.0000 C   0  0  0  0  0  0  0  0  0  0  0  0
    3.3523   -0.2854    0.0000 C   0  0  0  0  0  0  0  0  0  0  0  0
    3.3523   -1.1104    0.0000 O   0  0  0  0  0  0  0  0  0  0  0  0
    2.6378   -1.5229    0.0000 C   0  0  1  0  0  0  0  0  0  0  0  0
    2.6378   -2.3479    0.0000 O   0  0  0  0  0  0  0  0  0  0  0  0
    3.3523   -2.7604    0.0000 C   0  0  2  0  0  0  0  0  0  0  0  0
    4.0668   -2.3479    0.0000 O   0  0  0  0  0  0  0  0  0  0  0  0
    4.7812   -2.7604    0.0000 C   0  0  2  0  0  0  0  0  0  0  0  0
    5.4957   -2.3479    0.0000 C   0  0  0  0  0  0  0  0  0  0  0  0
    6.2102   -2.7604    0.0000 O   0  0  0  0  0  0  0  0  0  0  0  0
    4.7812   -3.5854    0.0000 C   0  0  1  0  0  0  0  0  0  0  0  0
    5.4957   -3.9979    0.0000 O   0  0  0  0  0  0  0  0  0  0  0  0
    4.0668   -3.9979    0.0000 C   0  0  2  0  0  0  0  0  0  0  0  0
    4.0668   -4.8229    0.0000 O   0  0  0  0  0  0  0  0  0  0  0  0
    3.3523   -3.5854    0.0000 C   0  0  1  0  0  0  0  0  0  0  0  0
    2.6378   -3.9979    0.0000 O   0  0  0  0  0  0  0  0  0  0  0  0
    1.9233   -1.1104    0.0000 C   0  0  2  0  0  0  0  0  0  0  0  0
    0.4243   -1.7779    0.0000 O   0  0  0  0  0  0  0  0  0  0  0  0
    0.4243   -2.6029    0.0000 C   0  0  0  0  0  0  0  0  0  0  0  0
    1.1387   -3.0154    0.0000 O   0  0  0  0  0  0  0  0  0  0  0  0
   -0.2902   -3.0154    0.0000 C   0  0  0  0  0  0  0  0  0  0  0  0
   -0.2902   -3.8404    0.0000 C   0  0  0  0  0  0  0  0  0  0  0  0
   -1.0047   -4.2529    0.0000 C   0  0  0  0  0  0  0  0  0  0  0  0
   -1.0047   -5.0779    0.0000 C   0  0  0  0  0  0  0  0  0  0  0  0
   -1.7192   -5.4904    0.0000 C   0  0  0  0  0  0  0  0  0  0  0  0
   -2.4336   -5.0779    0.0000 C   0  0  0  0  0  0  0  0  0  0  0  0
   -2.4336   -4.2529    0.0000 C   0  0  0  0  0  0  0  0  0  0  0  0
   -1.7192   -3.8404    0.0000 C   0  0  0  0  0  0  0  0  0  0  0  0
  2  1  1  6  0  0  0
  2  3  1  0  0  0  0
  3  4  1  0  0  0  0
  4  5  1  1  0  0  0
  4  6  1  0  0  0  0
  6  7  1  1  0  0  0
  6  8  1  0  0  0  0
  8  9  2  0  0  0  0
  9 10  1  0  0  0  0
 10 11  1  0  0  0  0
 11 12  1  1  0  0  0
 13 12  1  6  0  0  0
 13 14  1  0  0  0  0
 14 15  1  0  0  0  0
 15 16  1  6  0  0  0
 16 17  1  0  0  0  0
 15 18  1  0  0  0  0
 18 19  1  1  0  0  0
 18 20  1  0  0  0  0
 20 21  1  6  0  0  0
 20 22  1  0  0  0  0
 13 22  1  0  0  0  0
 22 23  1  1  0  0  0
 11 24  1  0  0  0  0
  2 24  1  0  0  0  0
 24  6  1  6  0  0  0
  2 25  1  1  0  0  0
 25 26  1  0  0  0  0
 26 27  2  0  0  0  0
 26 28  1  0  0  0  0
 28 29  2  0  0  0  0
 29 30  1  0  0  0  0
 30 31  4  0  0  0  0
 31 32  4  0  0  0  0
 32 33  4  0  0  0  0
 33 34  4  0  0  0  0
 34 35  4  0  0  0  0
 30 35  4  0  0  0  0
M  END

> <ChembankId>
3552120

> <SMILES>
C[C@@]1(C[C@@H](O)[C@]2(O)C=CO[C@@H](O[C@@H]3O[C@H](CO)[C@@H](O)[C@H](O)[C@H]3O)[C@H]12)OC(=O)/C=C/c4ccccc4

> <InChI>
1/C24H30O11/c1-23(35-16(27)8-7-13-5-3-2-4-6-13)11-15(26)24(31)9-10-32-22(20(23)24)34-21-19(30)18(29)17(28)14(12-25)33-21/h2-10,14-15,17-22,25-26,28-31H,11-12H2,1H3

$$$$
3559616
  Marvin  11101114202D          

 32 36  0  0  1  0            999 V2000
    1.9163   -2.6790    0.0000 C   0  0  0  0  0  0  0  0  0  0  0  0
    1.1279   -2.9220    0.0000 C   0  0  0  0  0  0  0  0  0  0  0  0
    0.5233   -2.3607    0.0000 C   0  0  0  0  0  0  0  0  0  0  0  0
    0.9442   -3.7263    0.0000 C   0  0  2  0  0  0  0  0  0  0  0  0
    0.1855   -4.0503    0.0000 C   0  0  0  0  0  0  0  0  0  0  0  0
    0.2592   -4.8720    0.0000 C   0  0  0  0  0  0  0  0  0  0  0  0
    1.0635   -5.0558    0.0000 C   0  0  2  0  0  0  0  0  0  0  0  0
    0.5685   -5.7158    0.0000 C   0  0  0  0  0  0  0  0  0  0  0  0
   -0.2506   -5.6171    0.0000 O   0  0  0  0  0  0  0  0  0  0  0  0
    1.4651   -5.7765    0.0000 C   0  0  0  0  0  0  0  0  0  0  0  0
    2.2900   -5.7890    0.0000 C   0  0  0  0  0  0  0  0  0  0  0  0
    2.7133   -5.0809    0.0000 C   0  0  2  0  0  0  0  0  0  0  0  0
    3.1149   -5.8016    0.0000 C   0  0  0  0  0  0  0  0  0  0  0  0
    2.3117   -4.3603    0.0000 C   0  0  2  0  0  0  0  0  0  0  0  0
    2.7350   -3.6521    0.0000 C   0  0  0  0  0  0  0  0  0  0  0  0
    3.5599   -3.6647    0.0000 C   0  0  0  0  0  0  0  0  0  0  0  0
    3.9615   -4.3853    0.0000 C   0  0  2  0  0  0  0  0  0  0  0  0
    4.7864   -4.3979    0.0000 C   0  0  1  0  0  0  0  0  0  0  0  0
    4.3848   -3.6772    0.0000 C   0  0  0  0  0  0  0  0  0  0  0  0
    5.2097   -3.6898    0.0000 C   0  0  0  0  0  0  0  0  0  0  0  0
    6.0346   -3.7023    0.0000 C   0  0  0  0  0  0  0  0  0  0  0  0
    6.4362   -4.4230    0.0000 C   0  0  2  0  0  0  0  0  0  0  0  0
    7.2611   -4.4355    0.0000 O   0  0  0  0  0  0  0  0  0  0  0  0
    6.0129   -5.1311    0.0000 C   0  0  0  0  0  0  0  0  0  0  0  0
    6.7838   -5.4250    0.0000 C   0  0  0  0  0  0  0  0  0  0  0  0
    5.8573   -5.9413    0.0000 C   0  0  0  0  0  0  0  0  0  0  0  0
    5.1880   -5.1186    0.0000 C   0  0  2  0  0  0  0  0  0  0  0  0
    4.7647   -5.8267    0.0000 C   0  0  0  0  0  0  0  0  0  0  0  0
    3.9398   -5.8141    0.0000 C   0  0  0  0  0  0  0  0  0  0  0  0
    3.5382   -5.0935    0.0000 C   0  0  1  0  0  0  0  0  0  0  0  0
    3.6119   -5.9152    0.0000 C   0  0  0  0  0  0  0  0  0  0  0  0
    1.4868   -4.3477    0.0000 C   0  0  1  0  0  0  0  0  0  0  0  0
  1  2  1  0  0  0  0
  2  3  2  0  0  0  0
  4  2  1  1  0  0  0
  4  5  1  0  0  0  0
  5  6  1  0  0  0  0
  6  7  1  0  0  0  0
  7  8  1  6  0  0  0
  8  9  1  0  0  0  0
  7 10  1  0  0  0  0
 10 11  1  0  0  0  0
 11 12  1  0  0  0  0
 12 13  1  1  0  0  0
 12 14  1  0  0  0  0
 14 15  1  1  0  0  0
 15 16  1  0  0  0  0
 17 16  1  6  0  0  0
 17 18  1  0  0  0  0
 18 19  1  6  0  0  0
 18 20  1  0  0  0  0
 20 21  1  0  0  0  0
 21 22  1  0  0  0  0
 22 23  1  6  0  0  0
 22 24  1  0  0  0  0
 24 25  1  0  0  0  0
 24 26  1  0  0  0  0
 27 24  1  6  0  0  0
 18 27  1  0  0  0  0
 27 28  1  0  0  0  0
 28 29  1  0  0  0  0
 29 30  1  0  0  0  0
 17 30  1  0  0  0  0
 12 30  1  0  0  0  0
 30 31  1  6  0  0  0
 14 32  1  0  0  0  0
  4 32  1  0  0  0  0
 32  7  1  6  0  0  0
M  END

> <ChembankId>
3559616

> <SMILES>
CC(=C)[C@@H]1CC[C@]2(CO)CC[C@]3(C)[C@H](CC[C@@H]4[C@@]5(C)CC[C@H](O)C(C)(C)[C@@H]5CC[C@]43C)[C@@H]12

> <InChI>
1/C30H50O2/c1-19(2)20-10-15-30(18-31)17-16-28(6)21(25(20)30)8-9-23-27(5)13-12-24(32)26(3,4)22(27)11-14-29(23,28)7/h20-25,31-32H,1,8-18H2,2-7H3

$$$$
3560914
  Marvin  11101114202D          

 23 24  0  0  1  0            999 V2000
    3.4656   -1.2991    0.0000 C   0  0  0  0  0  0  0  0  0  0  0  0
    2.7512   -1.7116    0.0000 C   0  0  0  0  0  0  0  0  0  0  0  0
    2.7512   -2.5366    0.0000 N   0  0  0  0  0  0  0  0  0  0  0  0
    3.4186   -3.0215    0.0000 C   0  0  0  0  0  0  0  0  0  0  0  0
    3.1637   -3.8062    0.0000 C   0  0  0  0  0  0  0  0  0  0  0  0
    2.3387   -3.8062    0.0000 C   0  0  0  0  0  0  0  0  0  0  0  0
    2.0837   -3.0215    0.0000 C   0  0  1  0  0  0  0  0  0  0  0  0
    1.2991   -2.7666    0.0000 C   0  0  0  0  0  0  0  0  0  0  0  0
    1.1276   -1.9596    0.0000 N   0  0  0  0  0  0  0  0  0  0  0  0
    0.3430   -1.7047    0.0000 C   0  0  0  0  0  0  0  0  0  0  0  0
   -0.2701   -2.2567    0.0000 O   0  0  0  0  0  0  0  0  0  0  0  0
    0.1714   -0.8977    0.0000 C   0  0  0  0  0  0  0  0  0  0  0  0
   -0.6132   -0.6428    0.0000 C   0  0  0  0  0  0  0  0  0  0  0  0
   -1.2263   -1.1948    0.0000 O   0  0  0  0  0  0  0  0  0  0  0  0
   -0.7847    0.1642    0.0000 C   0  0  0  0  0  0  0  0  0  0  0  0
   -1.5693    0.4191    0.0000 C   0  0  0  0  0  0  0  0  0  0  0  0
   -2.1824   -0.1329    0.0000 C   0  0  0  0  0  0  0  0  0  0  0  0
   -0.1716    0.7162    0.0000 C   0  0  0  0  0  0  0  0  0  0  0  0
    0.6130    0.4613    0.0000 C   0  0  0  0  0  0  0  0  0  0  0  0
    1.2261    1.0133    0.0000 Cl  0  0  0  0  0  0  0  0  0  0  0  0
    0.7845   -0.3457    0.0000 C   0  0  0  0  0  0  0  0  0  0  0  0
    1.5692   -0.6006    0.0000 O   0  0  0  0  0  0  0  0  0  0  0  0
    1.7407   -1.4076    0.0000 C   0  0  0  0  0  0  0  0  0  0  0  0
  1  2  1  0  0  0  0
  2  3  1  0  0  0  0
  3  4  1  0  0  0  0
  4  5  1  0  0  0  0
  5  6  1  0  0  0  0
  6  7  1  0  0  0  0
  3  7  1  0  0  0  0
  7  8  1  1  0  0  0
  8  9  1  0  0  0  0
  9 10  1  0  0  0  0
 10 11  2  0  0  0  0
 10 12  1  0  0  0  0
 12 13  4  0  0  0  0
 13 14  1  0  0  0  0
 13 15  4  0  0  0  0
 15 16  1  0  0  0  0
 16 17  1  0  0  0  0
 15 18  4  0  0  0  0
 18 19  4  0  0  0  0
 19 20  1  0  0  0  0
 19 21  4  0  0  0  0
 12 21  4  0  0  0  0
 21 22  1  0  0  0  0
 22 23  1  0  0  0  0
M  END

> <ChembankId>
3560914

> <SMILES>
CCN1CCC[C@H]1CNC(=O)c2c(O)c(CC)cc(Cl)c2OC

> <InChI>
1/C17H25ClN2O3/c1-4-11-9-13(18)16(23-3)14(15(11)21)17(22)19-10-12-7-6-8-20(12)5-2/h9,12,21H,4-8,10H2,1-3H3,(H,19,22)

$$$$
3561518
  Marvin  11101114202D          

 15 17  0  0  1  0            999 V2000
   -0.8932   -2.6420    0.0000 C   0  0  0  0  0  0  0  0  0  0  0  0
   -1.3057   -1.9275    0.0000 C   0  0  0  0  0  0  0  0  0  0  0  0
   -0.7537   -1.3144    0.0000 N   0  0  0  0  0  0  0  0  0  0  0  0
    0.0000   -1.6500    0.0000 C   0  0  0  0  0  0  0  0  0  0  0  0
   -0.0862   -2.4705    0.0000 N   0  0  0  0  0  0  0  0  0  0  0  0
    0.7145   -1.2375    0.0000 C   0  0  1  0  0  0  0  0  0  0  0  0
    0.7145   -0.4125    0.0000 C   0  0  0  0  0  0  0  0  0  0  0  0
    1.4289    0.0000    0.0000 O   0  0  0  0  0  0  0  0  0  0  0  0
    2.1434   -0.4125    0.0000 C   0  0  0  0  0  0  0  0  0  0  0  0
    2.8579    0.0000    0.0000 C   0  0  0  0  0  0  0  0  0  0  0  0
    3.5724   -0.4125    0.0000 C   0  0  0  0  0  0  0  0  0  0  0  0
    3.5724   -1.2375    0.0000 C   0  0  0  0  0  0  0  0  0  0  0  0
    2.8579   -1.6500    0.0000 C   0  0  0  0  0  0  0  0  0  0  0  0
    2.1434   -1.2375    0.0000 C   0  0  0  0  0  0  0  0  0  0  0  0
    1.4289   -1.6500    0.0000 O   0  0  0  0  0  0  0  0  0  0  0  0
  1  2  1  0  0  0  0
  2  3  1  0  0  0  0
  3  4  2  0  0  0  0
  4  5  1  0  0  0  0
  1  5  1  0  0  0  0
  6  4  1  1  0  0  0
  6  7  1  0  0  0  0
  7  8  1  0  0  0  0
  8  9  1  0  0  0  0
  9 10  4  0  0  0  0
 10 11  4  0  0  0  0
 11 12  4  0  0  0  0
 12 13  4  0  0  0  0
 13 14  4  0  0  0  0
  9 14  4  0  0  0  0
 14 15  1  0  0  0  0
  6 15  1  0  0  0  0
M  END

> <ChembankId>
3561518

> <SMILES>
C1CN=C(N1)[C@H]2COc3ccccc3O2

> <InChI>
1/C11H12N2O2/c1-2-4-9-8(3-1)14-7-10(15-9)11-12-5-6-13-11/h1-4,10H,5-7H2,(H,12,13)

$$$$
3561551
  Marvin  11101114202D          

 22 24  0  0  0  0            999 V2000
    0.0000   -4.1250    0.0000 C   0  0  0  0  0  0  0  0  0  0  0  0
    0.7145   -3.7125    0.0000 C   0  0  0  0  0  0  0  0  0  0  0  0
    1.4289   -4.1250    0.0000 C   0  0  0  0  0  0  0  0  0  0  0  0
    0.7145   -2.8875    0.0000 O   0  0  0  0  0  0  0  0  0  0  0  0
    1.4289   -2.4750    0.0000 C   0  0  0  0  0  0  0  0  0  0  0  0
    1.4289   -1.6500    0.0000 C   0  0  0  0  0  0  0  0  0  0  0  0
    2.1434   -1.2375    0.0000 C   0  0  0  0  0  0  0  0  0  0  0  0
    2.8579   -1.6500    0.0000 C   0  0  0  0  0  0  0  0  0  0  0  0
    3.5724   -1.2375    0.0000 C   0  0  0  0  0  0  0  0  0  0  0  0
    3.5724   -0.4125    0.0000 O   0  0  0  0  0  0  0  0  0  0  0  0
    4.2868   -1.6500    0.0000 C   0  0  0  0  0  0  0  0  0  0  0  0
    5.0013   -1.2375    0.0000 C   0  0  0  0  0  0  0  0  0  0  0  0
    5.7158   -1.6500    0.0000 C   0  0  0  0  0  0  0  0  0  0  0  0
    5.7158   -2.4750    0.0000 C   0  0  0  0  0  0  0  0  0  0  0  0
    5.0013   -2.8875    0.0000 C   0  0  0  0  0  0  0  0  0  0  0  0
    4.2868   -2.4750    0.0000 C   0  0  0  0  0  0  0  0  0  0  0  0
    3.5724   -2.8875    0.0000 O   0  0  0  0  0  0  0  0  0  0  0  0
    2.8579   -2.4750    0.0000 C   0  0  0  0  0  0  0  0  0  0  0  0
    2.1434   -2.8875    0.0000 C   0  0  0  0  0  0  0  0  0  0  0  0
    6.4302   -1.2375    0.0000 C   0  0  0  0  0  0  0  0  0  0  0  0
    6.4302   -0.4125    0.0000 O   0  0  0  0  0  0  0  0  0  0  0  0
    7.1447   -1.6500    0.0000 O   0  0  0  0  0  0  0  0  0  0  0  0
  1  2  1  0  0  0  0
  2  3  1  0  0  0  0
  2  4  1  0  0  0  0
  4  5  1  0  0  0  0
  5  6  4  0  0  0  0
  6  7  4  0  0  0  0
  7  8  4  0  0  0  0
  8  9  4  0  0  0  0
  9 10  2  0  0  0  0
  9 11  4  0  0  0  0
 11 12  4  0  0  0  0
 12 13  4  0  0  0  0
 13 14  4  0  0  0  0
 14 15  4  0  0  0  0
 15 16  4  0  0  0  0
 11 16  4  0  0  0  0
 16 17  4  0  0  0  0
 17 18  4  0  0  0  0
  8 18  4  0  0  0  0
 18 19  4  0  0  0  0
  5 19  4  0  0  0  0
 13 20  1  0  0  0  0
 20 21  2  0  0  0  0
 20 22  1  0  0  0  0
M  END

> <ChembankId>
3561551

> <SMILES>
CC(C)Oc1ccc2c(=O)c3cc(ccc3oc2c1)C(=O)O

> <InChI>
1/C17H14O5/c1-9(2)21-11-4-5-12-15(8-11)22-14-6-3-10(17(19)20)7-13(14)16(12)18/h3-9H,1-2H3,(H,19,20)

$$$$
1096365
  Marvin  11101114202D          

 21 24  0  0  0  0            999 V2000
    3.7600    3.6489    0.0000 C   0  0  0  0  0  0  0  0  0  0  0  0
    3.7692    2.8239    0.0000 N   0  0  0  0  0  0  0  0  0  0  0  0
    4.4882    2.4194    0.0000 C   0  0  0  0  0  0  0  0  0  0  0  0
    4.4974    1.5945    0.0000 C   0  0  0  0  0  0  0  0  0  0  0  0
    3.7876    1.1740    0.0000 C   0  0  0  0  0  0  0  0  0  0  0  0
    3.7969    0.3491    0.0000 C   0  0  0  0  0  0  0  0  0  0  0  0
    4.5441   -0.0006    0.0000 C   0  0  0  0  0  0  0  0  0  0  0  0
    5.2476    0.4305    0.0000 C   0  0  0  0  0  0  0  0  0  0  0  0
    5.8749   -0.1053    0.0000 C   0  0  0  0  0  0  0  0  0  0  0  0
    5.5591   -0.8675    0.0000 S   0  0  0  0  0  0  0  0  0  0  0  0
    4.7367   -0.8028    0.0000 C   0  0  0  0  0  0  0  0  0  0  0  0
    4.2295   -1.4535    0.0000 C   0  0  0  0  0  0  0  0  0  0  0  0
    3.4046   -1.4627    0.0000 C   0  0  0  0  0  0  0  0  0  0  0  0
    2.8830   -0.8235    0.0000 C   0  0  0  0  0  0  0  0  0  0  0  0
    2.0974   -1.0755    0.0000 C   0  0  0  0  0  0  0  0  0  0  0  0
    1.4864   -0.5211    0.0000 C   0  0  0  0  0  0  0  0  0  0  0  0
    1.6610    0.2852    0.0000 C   0  0  0  0  0  0  0  0  0  0  0  0
    2.4466    0.5372    0.0000 C   0  0  0  0  0  0  0  0  0  0  0  0
    3.0576   -0.0172    0.0000 C   0  0  0  0  0  0  0  0  0  0  0  0
    3.0686    1.5785    0.0000 C   0  0  0  0  0  0  0  0  0  0  0  0
    3.0594    2.4034    0.0000 C   0  0  0  0  0  0  0  0  0  0  0  0
  1  2  1  0  0  0  0
  2  3  1  0  0  0  0
  3  4  1  0  0  0  0
  4  5  1  0  0  0  0
  5  6  2  0  0  0  0
  6  7  1  0  0  0  0
  7  8  4  0  0  0  0
  8  9  4  0  0  0  0
  9 10  4  0  0  0  0
 10 11  4  0  0  0  0
  7 11  4  0  0  0  0
 11 12  1  0  0  0  0
 12 13  1  0  0  0  0
 13 14  1  0  0  0  0
 14 15  4  0  0  0  0
 15 16  4  0  0  0  0
 16 17  4  0  0  0  0
 17 18  4  0  0  0  0
 18 19  4  0  0  0  0
  6 19  1  0  0  0  0
 14 19  4  0  0  0  0
  5 20  1  0  0  0  0
 20 21  1  0  0  0  0
  2 21  1  0  0  0  0
M  END

> <ChembankId>
1096365

> <SMILES>
CN1CCC(=C2c3ccsc3CCc4ccccc24)CC1

> <InChI>
1/C19H21NS/c1-20-11-8-15(9-12-20)19-16-5-3-2-4-14(16)6-7-18-17(19)10-13-21-18/h2-5,10,13H,6-9,11-12H2,1H3

$$$$
3561733
  Marvin  11101114202D          

 23 25  0  0  0  0            999 V2000
   -0.5463   -2.6842    0.0000 C   0  0  0  0  0  0  0  0  0  0  0  0
    0.1681   -3.0967    0.0000 C   0  0  0  0  0  0  0  0  0  0  0  0
    0.1681   -3.9217    0.0000 O   0  0  0  0  0  0  0  0  0  0  0  0
    0.8826   -2.6842    0.0000 N   0  0  0  0  0  0  0  0  0  0  0  0
    1.5971   -3.0967    0.0000 N   0  0  0  0  0  0  0  0  0  0  0  0
    2.3116   -2.6842    0.0000 C   0  0  0  0  0  0  0  0  0  0  0  0
    2.3116   -1.8592    0.0000 O   0  0  0  0  0  0  0  0  0  0  0  0
    3.0260   -3.0967    0.0000 N   0  0  0  0  0  0  0  0  0  0  0  0
    3.7077   -2.6319    0.0000 C   0  0  0  0  0  0  0  0  0  0  0  0
    4.4960   -2.8751    0.0000 C   0  0  0  0  0  0  0  0  0  0  0  0
    5.0104   -2.2301    0.0000 C   0  0  0  0  0  0  0  0  0  0  0  0
    5.8262   -2.3530    0.0000 C   0  0  0  0  0  0  0  0  0  0  0  0
    6.3406   -1.7080    0.0000 Cl  0  0  0  0  0  0  0  0  0  0  0  0
    6.1276   -3.1210    0.0000 C   0  0  0  0  0  0  0  0  0  0  0  0
    5.6132   -3.7660    0.0000 C   0  0  0  0  0  0  0  0  0  0  0  0
    4.7974   -3.6431    0.0000 C   0  0  0  0  0  0  0  0  0  0  0  0
    4.3849   -4.3575    0.0000 O   0  0  0  0  0  0  0  0  0  0  0  0
    3.5691   -4.4805    0.0000 C   0  0  0  0  0  0  0  0  0  0  0  0
    3.3856   -5.2848    0.0000 C   0  0  0  0  0  0  0  0  0  0  0  0
    2.5972   -5.5280    0.0000 C   0  0  0  0  0  0  0  0  0  0  0  0
    1.9925   -4.9668    0.0000 C   0  0  0  0  0  0  0  0  0  0  0  0
    2.1760   -4.1625    0.0000 C   0  0  0  0  0  0  0  0  0  0  0  0
    2.9644   -3.9193    0.0000 C   0  0  0  0  0  0  0  0  0  0  0  0
  1  2  1  0  0  0  0
  2  3  2  0  0  0  0
  2  4  1  0  0  0  0
  4  5  1  0  0  0  0
  5  6  1  0  0  0  0
  6  7  2  0  0  0  0
  6  8  1  0  0  0  0
  8  9  1  0  0  0  0
  9 10  1  0  0  0  0
 10 11  4  0  0  0  0
 11 12  4  0  0  0  0
 12 13  1  0  0  0  0
 12 14  4  0  0  0  0
 14 15  4  0  0  0  0
 15 16  4  0  0  0  0
 10 16  4  0  0  0  0
 16 17  1  0  0  0  0
 17 18  1  0  0  0  0
 18 19  4  0  0  0  0
 19 20  4  0  0  0  0
 20 21  4  0  0  0  0
 21 22  4  0  0  0  0
 22 23  4  0  0  0  0
  8 23  1  0  0  0  0
 18 23  4  0  0  0  0
M  END

> <ChembankId>
3561733

> <SMILES>
CC(=O)NNC(=O)N1Cc2cc(Cl)ccc2Oc3ccccc13

> <InChI>
1/C16H14ClN3O3/c1-10(21)18-19-16(22)20-9-11-8-12(17)6-7-14(11)23-15-5-3-2-4-13(15)20/h2-8H,9H2,1H3,(H,18,21)(H,19,22)

$$$$
3561756
  Marvin  11101114202D          

 28 31  0  0  1  0            999 V2000
    4.1570    1.1270    0.0000 C   0  0  0  0  0  0  0  0  0  0  0  0
    3.7445    0.4125    0.0000 N   0  0  0  0  0  0  0  0  0  0  0  0
    2.9195    0.4125    0.0000 C   0  0  1  0  0  0  0  0  0  0  0  0
    2.5070   -0.3020    0.0000 C   0  0  0  0  0  0  0  0  0  0  0  0
    1.6820   -0.3020    0.0000 C   0  0  0  0  0  0  0  0  0  0  0  0
    1.2695    0.4125    0.0000 C   0  0  2  0  0  0  0  0  0  0  0  0
    0.7846   -0.2549    0.0000 C   0  0  0  0  0  0  0  0  0  0  0  0
    0.0000   -0.0000    0.0000 C   0  0  0  0  0  0  0  0  0  0  0  0
   -0.0000    0.8250    0.0000 C   0  0  0  0  0  0  0  0  0  0  0  0
    0.7846    1.0799    0.0000 O   0  0  0  0  0  0  0  0  0  0  0  0
    1.6820    1.1270    0.0000 C   0  0  0  0  0  0  0  0  0  0  0  0
    2.5070    1.1270    0.0000 C   0  0  1  0  0  0  0  0  0  0  0  0
    2.9195    1.8414    0.0000 N   0  0  0  0  0  0  0  0  0  0  0  0
    2.5840    2.5951    0.0000 C   0  0  0  0  0  0  0  0  0  0  0  0
    3.1971    3.1471    0.0000 C   0  0  0  0  0  0  0  0  0  0  0  0
    3.9116    2.7346    0.0000 C   0  0  0  0  0  0  0  0  0  0  0  0
    3.7400    1.9277    0.0000 C   0  0  0  0  0  0  0  0  0  0  0  0
    4.1570   -0.3020    0.0000 C   0  0  0  0  0  0  0  0  0  0  0  0
    3.7445   -1.0164    0.0000 O   0  0  0  0  0  0  0  0  0  0  0  0
    4.9820   -0.3020    0.0000 C   0  0  0  0  0  0  0  0  0  0  0  0
    5.3945   -1.0164    0.0000 C   0  0  0  0  0  0  0  0  0  0  0  0
    6.2195   -1.0164    0.0000 C   0  0  0  0  0  0  0  0  0  0  0  0
    6.6320   -1.7309    0.0000 C   0  0  0  0  0  0  0  0  0  0  0  0
    6.2195   -2.4454    0.0000 C   0  0  0  0  0  0  0  0  0  0  0  0
    6.6320   -3.1599    0.0000 Cl  0  0  0  0  0  0  0  0  0  0  0  0
    5.3945   -2.4454    0.0000 C   0  0  0  0  0  0  0  0  0  0  0  0
    4.9820   -3.1599    0.0000 Cl  0  0  0  0  0  0  0  0  0  0  0  0
    4.9820   -1.7309    0.0000 C   0  0  0  0  0  0  0  0  0  0  0  0
  1  2  1  0  0  0  0
  3  2  1  1  0  0  0
  3  4  1  0  0  0  0
  4  5  1  0  0  0  0
  5  6  1  0  0  0  0
  6  7  1  0  0  0  0
  7  8  1  0  0  0  0
  8  9  1  0  0  0  0
  9 10  1  0  0  0  0
  6 10  1  0  0  0  0
  6 11  1  1  0  0  0
 11 12  1  0  0  0  0
  3 12  1  0  0  0  0
 12 13  1  1  0  0  0
 13 14  1  0  0  0  0
 14 15  1  0  0  0  0
 15 16  1  0  0  0  0
 16 17  1  0  0  0  0
 13 17  1  0  0  0  0
  2 18  1  0  0  0  0
 18 19  2  0  0  0  0
 18 20  1  0  0  0  0
 20 21  1  0  0  0  0
 21 22  4  0  0  0  0
 22 23  4  0  0  0  0
 23 24  4  0  0  0  0
 24 25  1  0  0  0  0
 24 26  4  0  0  0  0
 26 27  1  0  0  0  0
 26 28  4  0  0  0  0
 21 28  4  0  0  0  0
M  END

> <ChembankId>
3561756

> <SMILES>
CN([C@H]1CC[C@@]2(CCCO2)C[C@H]1N3CCCC3)C(=O)Cc4ccc(Cl)c(Cl)c4

> <InChI>
1/C22H30Cl2N2O2/c1-25(21(27)14-16-5-6-17(23)18(24)13-16)19-7-9-22(8-4-12-28-22)15-20(19)26-10-2-3-11-26/h5-6,13,19-20H,2-4,7-12,14-15H2,1H3

$$$$
3616749
  Marvin  11101114202D          

 25 27  0  0  1  0            999 V2000
    0.9119   -2.3376    0.0000 C   0  0  0  0  0  0  0  0  0  0  0  0
    1.1867   -1.5597    0.0000 O   0  0  0  0  0  0  0  0  0  0  0  0
    1.9977   -1.4087    0.0000 C   0  0  0  0  0  0  0  0  0  0  0  0
    2.2725   -0.6308    0.0000 C   0  0  0  0  0  0  0  0  0  0  0  0
    3.0836   -0.4798    0.0000 C   0  0  0  0  0  0  0  0  0  0  0  0
    3.2393    0.3304    0.0000 C   0  0  0  0  0  0  0  0  0  0  0  0
    3.9698    0.7138    0.0000 C   0  0  0  0  0  0  0  0  0  0  0  0
    4.7250    0.3817    0.0000 C   0  0  2  0  0  0  0  0  0  0  0  0
    5.3519    0.9180    0.0000 N   0  0  0  0  0  0  0  0  0  0  0  0
    4.9362   -0.4158    0.0000 C   0  0  0  0  0  0  0  0  0  0  0  0
    5.7607   -0.3874    0.0000 C   0  0  0  0  0  0  0  0  0  0  0  0
    6.2970   -1.0143    0.0000 C   0  0  0  0  0  0  0  0  0  0  0  0
    7.0945   -0.8031    0.0000 O   0  0  0  0  0  0  0  0  0  0  0  0
    6.1413   -1.8245    0.0000 C   0  0  0  0  0  0  0  0  0  0  0  0
    6.8037   -2.3163    0.0000 O   0  0  0  0  0  0  0  0  0  0  0  0
    5.4108   -2.2078    0.0000 C   0  0  0  0  0  0  0  0  0  0  0  0
    4.6556   -1.8757    0.0000 C   0  0  0  0  0  0  0  0  0  0  0  0
    4.4444   -1.0782    0.0000 C   0  0  0  0  0  0  0  0  0  0  0  0
    3.6199   -1.1067    0.0000 C   0  0  0  0  0  0  0  0  0  0  0  0
    3.3451   -1.8846    0.0000 C   0  0  0  0  0  0  0  0  0  0  0  0
    3.8814   -2.5115    0.0000 O   0  0  0  0  0  0  0  0  0  0  0  0
    3.6067   -3.2894    0.0000 C   0  0  0  0  0  0  0  0  0  0  0  0
    2.5341   -2.0356    0.0000 C   0  0  0  0  0  0  0  0  0  0  0  0
    2.2593   -2.8135    0.0000 O   0  0  0  0  0  0  0  0  0  0  0  0
    1.4483   -2.9645    0.0000 C   0  0  0  0  0  0  0  0  0  0  0  0
  1  2  1  0  0  0  0
  2  3  1  0  0  0  0
  3  4  4  0  0  0  0
  4  5  4  0  0  0  0
  5  6  1  0  0  0  0
  6  7  1  0  0  0  0
  7  8  1  0  0  0  0
  8  9  1  6  0  0  0
  8 10  1  0  0  0  0
 10 11  4  0  0  0  0
 11 12  4  0  0  0  0
 12 13  2  0  0  0  0
 12 14  4  0  0  0  0
 14 15  1  0  0  0  0
 14 16  4  0  0  0  0
 16 17  4  0  0  0  0
 17 18  4  0  0  0  0
 10 18  4  0  0  0  0
 18 19  1  0  0  0  0
  5 19  4  0  0  0  0
 19 20  4  0  0  0  0
 20 21  1  0  0  0  0
 21 22  1  0  0  0  0
 20 23  4  0  0  0  0
  3 23  4  0  0  0  0
 23 24  1  0  0  0  0
 24 25  1  0  0  0  0
M  END

> <ChembankId>
3616749

> <SMILES>
COc1cc2CC[C@H](N)c3cc(=O)c(O)ccc3-c2c(OC)c1OC

> <InChI>
1/C19H21NO5/c1-23-16-8-10-4-6-13(20)12-9-15(22)14(21)7-5-11(12)17(10)19(25-3)18(16)24-2/h5,7-9,13H,4,6,20H2,1-3H3,(H,21,22)

$$$$
3616751
  Marvin  11101114202D          

 26 31  0  0  1  0            999 V2000
   -1.0443    0.5595    0.0000 C   0  0  0  0  0  0  0  0  0  0  0  0
   -0.8546   -0.3111    0.0000 N   0  0  0  0  0  0  0  0  0  0  0  0
   -0.4712   -1.2674    0.0000 C   0  0  0  0  0  0  0  0  0  0  0  0
    0.3924   -1.5769    0.0000 C   0  0  0  0  0  0  0  0  0  0  0  0
    0.2166   -0.9992    0.0000 C   0  0  1  0  0  0  0  0  0  0  0  0
   -0.1491   -1.8586    0.0000 C   0  0  2  0  0  0  0  0  0  0  0  0
   -0.9849   -1.7663    0.0000 N   0  0  0  0  0  0  0  0  0  0  0  0
   -1.6537   -1.1501    0.0000 C   0  0  0  0  0  0  0  0  0  0  0  0
   -2.4638   -1.3064    0.0000 C   0  0  0  0  0  0  0  0  0  0  0  0
   -3.0042   -0.6830    0.0000 C   0  0  0  0  0  0  0  0  0  0  0  0
   -2.7345    0.0967    0.0000 C   0  0  0  0  0  0  0  0  0  0  0  0
   -1.9245    0.2530    0.0000 C   0  0  0  0  0  0  0  0  0  0  0  0
   -1.3841   -0.3704    0.0000 C   0  0  0  0  0  0  0  0  0  0  0  0
   -0.4450   -0.3689    0.0000 C   0  0  1  0  0  0  0  0  0  0  0  0
   -1.1602   -0.8867    0.0000 C   0  0  0  0  0  0  0  0  0  0  0  0
   -1.4962   -1.7364    0.0000 C   0  0  0  0  0  0  0  0  0  0  0  0
   -0.8337   -2.3120    0.0000 N   0  0  0  0  0  0  0  0  0  0  0  0
   -0.9474   -1.3656    0.0000 C   0  0  0  0  0  0  0  0  0  0  0  0
   -0.1720    0.2821    0.0000 C   0  0  2  0  0  0  0  0  0  0  0  0
    0.6359    0.5933    0.0000 N   0  0  0  0  0  0  0  0  0  0  0  0
    1.2643    0.0471    0.0000 C   0  0  0  0  0  0  0  0  0  0  0  0
    2.0576    0.2735    0.0000 C   0  0  0  0  0  0  0  0  0  0  0  0
    2.6504   -0.3003    0.0000 C   0  0  0  0  0  0  0  0  0  0  0  0
    2.4498   -1.1006    0.0000 C   0  0  0  0  0  0  0  0  0  0  0  0
    1.6565   -1.3270    0.0000 C   0  0  0  0  0  0  0  0  0  0  0  0
    1.0637   -0.7531    0.0000 C   0  0  0  0  0  0  0  0  0  0  0  0
  1  2  1  0  0  0  0
  2  3  1  0  0  0  0
  3  4  1  0  0  0  0
  4  5  1  0  0  0  0
  5  6  1  0  0  0  0
  6  7  1  6  0  0  0
  7  8  1  0  0  0  0
  8  9  4  0  0  0  0
  9 10  4  0  0  0  0
 10 11  4  0  0  0  0
 11 12  4  0  0  0  0
 12 13  4  0  0  0  0
  8 13  4  0  0  0  0
 13 14  1  0  0  0  0
  5 14  1  0  0  0  0
 14 15  1  1  0  0  0
 15 16  1  0  0  0  0
 16 17  1  0  0  0  0
  6 17  1  0  0  0  0
 17 18  1  0  0  0  0
 14 19  1  0  0  0  0
 19  2  1  1  0  0  0
 19 20  1  0  0  0  0
 20 21  1  0  0  0  0
 21 22  4  0  0  0  0
 22 23  4  0  0  0  0
 23 24  4  0  0  0  0
 24 25  4  0  0  0  0
 25 26  4  0  0  0  0
 21 26  4  0  0  0  0
  5 26  1  6  0  0  0
M  END

> <ChembankId>
3616751

> <SMILES>
CN1CC[C@]23[C@@H]4Nc5ccccc5[C@]3(CCN4C)[C@@H]1Nc6ccccc62

> <InChI>
1/C22H26N4/c1-25-13-11-22-16-8-4-5-9-17(16)23-19(25)21(22)12-14-26(2)20(22)24-18-10-6-3-7-15(18)21/h3-10,19-20,23-24H,11-14H2,1-2H3

$$$$
1001889
  Marvin  11101114202D          

 24 27  0  0  1  0            999 V2000
    6.4302   -0.4125    0.0000 C   0  0  0  0  0  0  0  0  0  0  0  0
    5.7158   -0.0000    0.0000 O   0  0  0  0  0  0  0  0  0  0  0  0
    5.0013   -0.4125    0.0000 C   0  0  0  0  0  0  0  0  0  0  0  0
    4.2868    0.0000    0.0000 C   0  0  0  0  0  0  0  0  0  0  0  0
    3.5724   -0.4125    0.0000 C   0  0  0  0  0  0  0  0  0  0  0  0
    3.5724   -1.2375    0.0000 C   0  0  0  0  0  0  0  0  0  0  0  0
    2.8579   -1.6500    0.0000 C   0  0  0  0  0  0  0  0  0  0  0  0
    2.1434   -1.2375    0.0000 C   0  0  2  0  0  0  0  0  0  0  0  0
    1.4289   -1.6500    0.0000 N   0  0  0  0  0  0  0  0  0  0  0  0
    1.4289   -2.4750    0.0000 C   0  0  0  0  0  0  0  0  0  0  0  0
    0.7145   -1.2375    0.0000 C   0  0  0  0  0  0  0  0  0  0  0  0
    0.7145   -0.4125    0.0000 C   0  0  0  0  0  0  0  0  0  0  0  0
    1.4289   -0.0000    0.0000 C   0  0  0  0  0  0  0  0  0  0  0  0
    1.4289    0.8250    0.0000 C   0  0  0  0  0  0  0  0  0  0  0  0
    2.1434    1.2375    0.0000 C   0  0  0  0  0  0  0  0  0  0  0  0
    2.1434    2.0625    0.0000 O   0  0  0  0  0  0  0  0  0  0  0  0
    2.8579    0.8250    0.0000 C   0  0  0  0  0  0  0  0  0  0  0  0
    3.5724    1.2375    0.0000 O   0  0  0  0  0  0  0  0  0  0  0  0
    4.2868    0.8250    0.0000 C   0  0  0  0  0  0  0  0  0  0  0  0
    2.8579    0.0000    0.0000 C   0  0  0  0  0  0  0  0  0  0  0  0
    2.1434   -0.4125    0.0000 C   0  0  0  0  0  0  0  0  0  0  0  0
    4.2868   -1.6500    0.0000 C   0  0  0  0  0  0  0  0  0  0  0  0
    5.0013   -1.2375    0.0000 C   0  0  0  0  0  0  0  0  0  0  0  0
    5.7158   -1.6500    0.0000 O   0  0  0  0  0  0  0  0  0  0  0  0
  1  2  1  0  0  0  0
  2  3  1  0  0  0  0
  3  4  4  0  0  0  0
  4  5  4  0  0  0  0
  5  6  4  0  0  0  0
  6  7  1  0  0  0  0
  7  8  1  0  0  0  0
  8  9  1  6  0  0  0
  9 10  1  0  0  0  0
  9 11  1  0  0  0  0
 11 12  1  0  0  0  0
 12 13  1  0  0  0  0
 13 14  4  0  0  0  0
 14 15  4  0  0  0  0
 15 16  1  0  0  0  0
 15 17  4  0  0  0  0
 17 18  1  0  0  0  0
 18 19  1  0  0  0  0
 17 20  4  0  0  0  0
  5 20  1  0  0  0  0
 20 21  4  0  0  0  0
  8 21  1  0  0  0  0
 13 21  4  0  0  0  0
  6 22  4  0  0  0  0
 22 23  4  0  0  0  0
  3 23  4  0  0  0  0
 23 24  1  0  0  0  0
M  END

> <ChembankId>
1001889

> <SMILES>
COc1cc-2c(C[C@@H]3N(C)CCc4cc(O)c(OC)c2c34)cc1O

> <InChI>
1/C19H21NO4/c1-20-5-4-10-7-15(22)19(24-3)18-12-9-16(23-2)14(21)8-11(12)6-13(20)17(10)18/h7-9,13,21-22H,4-6H2,1-3H3

$$$$
3616753
  Marvin  11101114202D          

 24 27  0  0  1  0            999 V2000
    2.3965    0.2664    0.0000 C   0  0  0  0  0  0  0  0  0  0  0  0
    2.6666   -0.5132    0.0000 O   0  0  0  0  0  0  0  0  0  0  0  0
    3.4767   -0.6691    0.0000 C   0  0  0  0  0  0  0  0  0  0  0  0
    3.7467   -1.4486    0.0000 C   0  0  0  0  0  0  0  0  0  0  0  0
    4.5569   -1.6046    0.0000 C   0  0  0  0  0  0  0  0  0  0  0  0
    5.0970   -0.9809    0.0000 C   0  0  0  0  0  0  0  0  0  0  0  0
    5.9071   -1.1368    0.0000 C   0  0  0  0  0  0  0  0  0  0  0  0
    6.4472   -0.5132    0.0000 C   0  0  2  0  0  0  0  0  0  0  0  0
    6.1771    0.2664    0.0000 N   0  0  0  0  0  0  0  0  0  0  0  0
    6.7172    0.8900    0.0000 C   0  0  0  0  0  0  0  0  0  0  0  0
    7.5274    0.7341    0.0000 C   0  0  0  0  0  0  0  0  0  0  0  0
    7.7974   -0.0454    0.0000 C   0  0  0  0  0  0  0  0  0  0  0  0
    8.6075   -0.2014    0.0000 C   0  0  0  0  0  0  0  0  0  0  0  0
    8.8776   -0.9809    0.0000 C   0  0  0  0  0  0  0  0  0  0  0  0
    9.6877   -1.1368    0.0000 O   0  0  0  0  0  0  0  0  0  0  0  0
   10.2278   -0.5132    0.0000 C   0  0  0  0  0  0  0  0  0  0  0  0
    8.3375   -1.6046    0.0000 C   0  0  0  0  0  0  0  0  0  0  0  0
    8.6075   -2.3841    0.0000 O   0  0  0  0  0  0  0  0  0  0  0  0
    7.5274   -1.4486    0.0000 C   0  0  0  0  0  0  0  0  0  0  0  0
    7.2573   -0.6691    0.0000 C   0  0  0  0  0  0  0  0  0  0  0  0
    5.3670    0.4223    0.0000 C   0  0  0  0  0  0  0  0  0  0  0  0
    4.8269   -0.2014    0.0000 C   0  0  0  0  0  0  0  0  0  0  0  0
    4.0168   -0.0454    0.0000 C   0  0  0  0  0  0  0  0  0  0  0  0
    3.7467    0.7341    0.0000 O   0  0  0  0  0  0  0  0  0  0  0  0
  1  2  1  0  0  0  0
  2  3  1  0  0  0  0
  3  4  4  0  0  0  0
  4  5  4  0  0  0  0
  5  6  4  0  0  0  0
  6  7  1  0  0  0  0
  7  8  1  0  0  0  0
  8  9  1  6  0  0  0
  9 10  1  0  0  0  0
 10 11  1  0  0  0  0
 11 12  1  0  0  0  0
 12 13  4  0  0  0  0
 13 14  4  0  0  0  0
 14 15  1  0  0  0  0
 15 16  1  0  0  0  0
 14 17  4  0  0  0  0
 17 18  1  0  0  0  0
 17 19  4  0  0  0  0
 19 20  4  0  0  0  0
  8 20  1  0  0  0  0
 12 20  4  0  0  0  0
  9 21  1  0  0  0  0
 21 22  1  0  0  0  0
  6 22  4  0  0  0  0
 22 23  4  0  0  0  0
  3 23  4  0  0  0  0
 23 24  1  0  0  0  0
M  END

> <ChembankId>
3616753

> <SMILES>
COc1ccc2C[C@@H]3N(CCc4cc(OC)c(O)cc34)Cc2c1O

> <InChI>
1/C19H21NO4/c1-23-17-4-3-11-7-15-13-9-16(21)18(24-2)8-12(13)5-6-20(15)10-14(11)19(17)22/h3-4,8-9,15,21-22H,5-7,10H2,1-2H3

$$$$
3616769
  Marvin  11101114202D          

 38 43  0  0  1  0            999 V2000
   -3.0946   -4.1952    0.0000 C   0  0  0  0  0  0  0  0  0  0  0  0
   -2.2825   -4.0500    0.0000 C   0  0  1  0  0  0  0  0  0  0  0  0
   -2.0022   -3.2741    0.0000 O   0  0  0  0  0  0  0  0  0  0  0  0
   -1.1901   -3.1289    0.0000 C   0  0  2  0  0  0  0  0  0  0  0  0
   -0.6582   -3.7596    0.0000 C   0  0  0  0  0  0  0  0  0  0  0  0
   -0.9385   -4.5355    0.0000 C   0  0  2  0  0  0  0  0  0  0  0  0
   -0.4067   -5.1662    0.0000 O   0  0  0  0  0  0  0  0  0  0  0  0
   -1.7507   -4.6807    0.0000 C   0  0  2  0  0  0  0  0  0  0  0  0
   -2.0310   -5.4566    0.0000 O   0  0  0  0  0  0  0  0  0  0  0  0
   -0.9098   -2.3529    0.0000 O   0  0  0  0  0  0  0  0  0  0  0  0
   -0.0976   -2.2077    0.0000 C   0  0  0  0  0  0  0  0  0  0  0  0
    0.1827   -1.4318    0.0000 C   0  0  0  0  0  0  0  0  0  0  0  0
    0.9948   -1.2866    0.0000 C   0  0  0  0  0  0  0  0  0  0  0  0
    1.5266   -1.9173    0.0000 C   0  0  2  0  0  0  0  0  0  0  0  0
    1.8069   -1.1414    0.0000 C   0  0  0  0  0  0  0  0  0  0  0  0
    1.2751   -0.5107    0.0000 O   0  0  0  0  0  0  0  0  0  0  0  0
    2.3387   -1.7721    0.0000 C   0  0  1  0  0  0  0  0  0  0  0  0
    2.6190   -0.9961    0.0000 C   0  0  0  0  0  0  0  0  0  0  0  0
    3.4311   -0.8509    0.0000 C   0  0  0  0  0  0  0  0  0  0  0  0
    3.9629   -1.4816    0.0000 C   0  0  2  0  0  0  0  0  0  0  0  0
    4.3228   -0.7393    0.0000 C   0  0  0  0  0  0  0  0  0  0  0  0
    4.7875   -1.5084    0.0000 C   0  0  2  0  0  0  0  0  0  0  0  0
    5.0168   -2.3009    0.0000 C   0  0  0  0  0  0  0  0  0  0  0  0
    4.3340   -2.7639    0.0000 C   0  0  0  0  0  0  0  0  0  0  0  0
    3.6826   -2.2576    0.0000 C   0  0  1  0  0  0  0  0  0  0  0  0
    3.4850   -3.0585    0.0000 O   0  0  0  0  0  0  0  0  0  0  0  0
    2.8705   -2.4028    0.0000 C   0  0  2  0  0  0  0  0  0  0  0  0
    2.5902   -3.1787    0.0000 C   0  0  0  0  0  0  0  0  0  0  0  0
    1.7781   -3.3239    0.0000 C   0  0  0  0  0  0  0  0  0  0  0  0
    1.2463   -2.6932    0.0000 C   0  0  1  0  0  0  0  0  0  0  0  0
    0.9660   -3.4691    0.0000 O   0  0  0  0  0  0  0  0  0  0  0  0
    0.4342   -2.8384    0.0000 C   0  0  0  0  0  0  0  0  0  0  0  0
    5.2939   -0.8571    0.0000 C   0  0  0  0  0  0  0  0  0  0  0  0
    5.0646   -0.0646    0.0000 C   0  0  0  0  0  0  0  0  0  0  0  0
    5.7474    0.3984    0.0000 C   0  0  0  0  0  0  0  0  0  0  0  0
    5.7742    1.2229    0.0000 O   0  0  0  0  0  0  0  0  0  0  0  0
    6.3987   -0.1080    0.0000 O   0  0  0  0  0  0  0  0  0  0  0  0
    6.1184   -0.8839    0.0000 C   0  0  0  0  0  0  0  0  0  0  0  0
  2  1  1  1  0  0  0
  2  3  1  0  0  0  0
  3  4  1  0  0  0  0
  4  5  1  0  0  0  0
  5  6  1  0  0  0  0
  6  7  1  6  0  0  0
  6  8  1  0  0  0  0
  2  8  1  0  0  0  0
  8  9  1  6  0  0  0
  4 10  1  1  0  0  0
 10 11  1  0  0  0  0
 11 12  1  0  0  0  0
 12 13  1  0  0  0  0
 13 14  1  0  0  0  0
 14 15  1  1  0  0  0
 15 16  2  0  0  0  0
 14 17  1  0  0  0  0
 17 18  1  1  0  0  0
 18 19  1  0  0  0  0
 19 20  1  0  0  0  0
 20 21  1  1  0  0  0
 20 22  1  0  0  0  0
 22 23  1  0  0  0  0
 23 24  1  0  0  0  0
 24 25  1  0  0  0  0
 20 25  1  0  0  0  0
 25 26  1  1  0  0  0
 25 27  1  0  0  0  0
 17 27  1  0  0  0  0
 27 28  1  6  0  0  0
 28 29  1  0  0  0  0
 29 30  1  0  0  0  0
 14 30  1  0  0  0  0
 30 31  1  1  0  0  0
 30 32  1  0  0  0  0
 11 32  1  0  0  0  0
 22 33  1  1  0  0  0
 33 34  2  0  0  0  0
 34 35  1  0  0  0  0
 35 36  2  0  0  0  0
 35 37  1  0  0  0  0
 37 38  1  0  0  0  0
 33 38  1  0  0  0  0
M  END

> <ChembankId>
3616769

> <SMILES>
C[C@H]1O[C@H](C[C@H](O)[C@@H]1O)OC2CC[C@]3(C=O)[C@H]4CC[C@]5(C)[C@H](CC[C@]5(O)[C@@H]4CC[C@]3(O)C2)C6=CC(=O)OC6

> <InChI>
1/C29H42O9/c1-16-25(33)22(31)12-24(37-16)38-18-3-8-27(15-30)20-4-7-26(2)19(17-11-23(32)36-14-17)6-10-29(26,35)21(20)5-9-28(27,34)13-18/h11,15-16,18-22,24-25,31,33-35H,3-10,12-14H2,1-2H3

$$$$
3616774
  Marvin  11101114202D          

 24 29  0  0  1  0            999 V2000
   -0.2917   -0.2946    0.0000 C   0  0  0  0  0  0  0  0  0  0  0  0
    0.5096   -0.5368    0.0000 N   0  0  0  0  0  0  0  0  0  0  0  0
    1.2073   -0.0865    0.0000 C   0  0  0  0  0  0  0  0  0  0  0  0
    1.5214   -0.9718    0.0000 C   0  0  1  0  0  0  0  0  0  0  0  0
    0.5594   -1.4664    0.0000 C   0  0  0  0  0  0  0  0  0  0  0  0
    0.0641   -2.1558    0.0000 C   0  0  0  0  0  0  0  0  0  0  0  0
    1.8668   -1.7616    0.0000 C   0  0  0  0  0  0  0  0  0  0  0  0
    2.7380   -2.0680    0.0000 C   0  0  0  0  0  0  0  0  0  0  0  0
    3.0730   -1.6277    0.0000 C   0  0  0  0  0  0  0  0  0  0  0  0
    2.8142   -2.6406    0.0000 O   0  0  0  0  0  0  0  0  0  0  0  0
    1.8787   -2.8223    0.0000 C   0  0  0  0  0  0  0  0  0  0  0  0
    1.2954   -2.1236    0.0000 C   0  0  2  0  0  0  0  0  0  0  0  0
    0.9652   -1.2535    0.0000 C   0  0  2  0  0  0  0  0  0  0  0  0
    1.9226   -0.6506    0.0000 C   0  0  0  0  0  0  0  0  0  0  0  0
    2.8119   -0.7624    0.0000 C   0  0  1  0  0  0  0  0  0  0  0  0
    2.6097    0.0375    0.0000 C   0  0  0  0  0  0  0  0  0  0  0  0
    2.1199    0.7167    0.0000 O   0  0  0  0  0  0  0  0  0  0  0  0
    3.3080    0.4769    0.0000 N   0  0  0  0  0  0  0  0  0  0  0  0
    3.9417   -0.0514    0.0000 C   0  0  0  0  0  0  0  0  0  0  0  0
    4.7583    0.0661    0.0000 C   0  0  0  0  0  0  0  0  0  0  0  0
    5.2683   -0.5824    0.0000 C   0  0  0  0  0  0  0  0  0  0  0  0
    4.9617   -1.3483    0.0000 C   0  0  0  0  0  0  0  0  0  0  0  0
    4.1451   -1.4658    0.0000 C   0  0  0  0  0  0  0  0  0  0  0  0
    3.6351   -0.8173    0.0000 C   0  0  0  0  0  0  0  0  0  0  0  0
  1  2  1  0  0  0  0
  2  3  1  0  0  0  0
  3  4  1  0  0  0  0
  4  5  1  1  0  0  0
  5  6  2  0  0  0  0
  4  7  1  0  0  0  0
  7  8  1  0  0  0  0
  8  9  1  0  0  0  0
  9 10  1  0  0  0  0
 10 11  1  0  0  0  0
 12 11  1  6  0  0  0
  7 12  1  0  0  0  0
 12 13  1  0  0  0  0
 13  2  1  1  0  0  0
 13 14  1  0  0  0  0
  4 14  1  0  0  0  0
 14 15  1  0  0  0  0
  9 15  1  0  0  0  0
 15 16  1  0  0  0  0
 16 17  2  0  0  0  0
 16 18  1  0  0  0  0
 18 19  1  0  0  0  0
 19 20  4  0  0  0  0
 20 21  4  0  0  0  0
 21 22  4  0  0  0  0
 22 23  4  0  0  0  0
 23 24  4  0  0  0  0
 19 24  4  0  0  0  0
 15 24  1  6  0  0  0
M  END

> <ChembankId>
3616774

> <SMILES>
CN1C[C@@]2(C=C)C3CC4OC[C@@H]3[C@@H]1[C@H]2[C@@]45C(=O)Nc6ccccc65

> <InChI>
1/C20H22N2O2/c1-3-19-10-22(2)16-11-9-24-15(8-13(11)19)20(17(16)19)12-6-4-5-7-14(12)21-18(20)23/h3-7,11,13,15-17H,1,8-10H2,2H3,(H,21,23)

$$$$
3616785
  Marvin  11101114202D          

 33 38  0  0  1  0            999 V2000
    0.8688   -3.2628    0.0000 C   0  0  0  0  0  0  0  0  0  0  0  0
    0.8460   -2.4288    0.0000 C   0  0  0  0  0  0  0  0  0  0  0  0
    0.9484   -1.5670    0.0000 N   0  0  0  0  0  0  0  0  0  0  0  0
    0.3871   -0.8573    0.0000 C   0  0  0  0  0  0  0  0  0  0  0  0
    0.7482   -0.0814    0.0000 C   0  0  2  0  0  0  0  0  0  0  0  0
   -0.0135    0.2997    0.0000 C   0  0  0  0  0  0  0  0  0  0  0  0
   -0.2679    1.0898    0.0000 O   0  0  0  0  0  0  0  0  0  0  0  0
    0.2858    1.7014    0.0000 C   0  0  0  0  0  0  0  0  0  0  0  0
    0.9801    0.7437    0.0000 C   0  0  0  0  0  0  0  0  0  0  0  0
    1.7844    0.9753    0.0000 C   0  0  0  0  0  0  0  0  0  0  0  0
    2.3106    0.3360    0.0000 C   0  0  2  0  0  0  0  0  0  0  0  0
    2.7136    1.0843    0.0000 O   0  0  0  0  0  0  0  0  0  0  0  0
    2.1015   -0.5249    0.0000 C   0  0  1  0  0  0  0  0  0  0  0  0
    2.8839   -0.0973    0.0000 C   0  0  2  0  0  0  0  0  0  0  0  0
    3.6107    0.4679    0.0000 C   0  0  0  0  0  0  0  0  0  0  0  0
    4.4310   -0.2387    0.0000 C   0  0  1  0  0  0  0  0  0  0  0  0
    4.0011    0.1063    0.0000 C   0  0  2  0  0  0  0  0  0  0  0  0
    4.0653   -0.7557    0.0000 O   0  0  0  0  0  0  0  0  0  0  0  0
    3.0568   -0.8030    0.0000 C   0  0  0  0  0  0  0  0  0  0  0  0
    3.3570   -0.6352    0.0000 C   0  0  0  0  0  0  0  0  0  0  0  0
    3.2746   -1.4672    0.0000 C   0  0  2  0  0  0  0  0  0  0  0  0
    3.4361   -2.3061    0.0000 O   0  0  0  0  0  0  0  0  0  0  0  0
    4.0889   -1.6713    0.0000 C   0  0  0  0  0  0  0  0  0  0  0  0
    4.7071   -1.0844    0.0000 C   0  0  2  0  0  0  0  0  0  0  0  0
    5.5404   -1.2183    0.0000 O   0  0  0  0  0  0  0  0  0  0  0  0
    6.2183   -0.7421    0.0000 C   0  0  0  0  0  0  0  0  0  0  0  0
    2.3673   -1.7009    0.0000 C   0  0  1  0  0  0  0  0  0  0  0  0
    2.4481   -2.5851    0.0000 O   0  0  0  0  0  0  0  0  0  0  0  0
    1.3586   -1.3613    0.0000 C   0  0  1  0  0  0  0  0  0  0  0  0
    0.3826   -1.5636    0.0000 O   0  0  0  0  0  0  0  0  0  0  0  0
   -0.4680   -1.6249    0.0000 C   0  0  0  0  0  0  0  0  0  0  0  0
    1.4484   -0.4576    0.0000 C   0  0  2  0  0  0  0  0  0  0  0  0
    1.7907   -1.5023    0.0000 C   0  0  0  0  0  0  0  0  0  0  0  0
  1  2  1  0  0  0  0
  2  3  1  0  0  0  0
  3  4  1  0  0  0  0
  4  5  1  0  0  0  0
  5  6  1  1  0  0  0
  6  7  1  0  0  0  0
  7  8  1  0  0  0  0
  5  9  1  0  0  0  0
  9 10  1  0  0  0  0
 10 11  1  0  0  0  0
 11 12  1  6  0  0  0
 11 13  1  0  0  0  0
 13 14  1  0  0  0  0
 14 15  1  6  0  0  0
 16 15  1  6  0  0  0
 16 17  1  0  0  0  0
 17 18  1  1  0  0  0
 18 19  1  0  0  0  0
 17 20  1  0  0  0  0
 14 20  1  0  0  0  0
 20 21  1  0  0  0  0
 21 22  1  1  0  0  0
 21 23  1  0  0  0  0
 23 24  1  0  0  0  0
 16 24  1  0  0  0  0
 24 25  1  1  0  0  0
 25 26  1  0  0  0  0
 21 27  1  0  0  0  0
 27 28  1  1  0  0  0
 27 29  1  0  0  0  0
 29 30  1  1  0  0  0
 30 31  1  0  0  0  0
 29 32  1  0  0  0  0
 13 32  1  0  0  0  0
 32  5  1  6  0  0  0
 13 33  1  6  0  0  0
  3 33  1  0  0  0  0
 27 33  1  0  0  0  0
M  END

> <ChembankId>
3616785

> <SMILES>
CCN1C[C@]2(COC)CC[C@H](O)[C@]3([C@@H]4C[C@H]5[C@H](OC)[C@@H]4[C@](O)(C[C@@H]5OC)[C@@]6(O)[C@@H](OC)[C@@H]32)C16

> <InChI>
1/C25H41NO7/c1-6-26-11-22(12-30-2)8-7-16(27)24-14-9-13-15(31-3)10-23(28,17(14)18(13)32-4)25(29,21(24)26)20(33-5)19(22)24/h13-21,27-29H,6-12H2,1-5H3

$$$$
3616793
  Marvin  11101114202D          

 22 23  0  0  1  0            999 V2000
    4.2772   -0.2756    0.0000 C   0  0  0  0  0  0  0  0  0  0  0  0
    5.0780   -0.4737    0.0000 O   0  0  0  0  0  0  0  0  0  0  0  0
    5.6501    0.1207    0.0000 C   0  0  2  0  0  0  0  0  0  0  0  0
    5.4213    0.9134    0.0000 C   0  0  0  0  0  0  0  0  0  0  0  0
    6.4509   -0.0774    0.0000 C   0  0  0  0  0  0  0  0  0  0  0  0
    6.2528   -0.8783    0.0000 O   0  0  0  0  0  0  0  0  0  0  0  0
    6.6491    0.7234    0.0000 C   0  0  0  0  0  0  0  0  0  0  0  0
    7.4417    0.9522    0.0000 C   0  0  0  0  0  0  0  0  0  0  0  0
    6.0546    1.2955    0.0000 C   0  0  0  0  0  0  0  0  0  0  0  0
    7.2518   -0.2756    0.0000 C   0  0  0  0  0  0  0  0  0  0  0  0
    7.4806   -1.0682    0.0000 O   0  0  0  0  0  0  0  0  0  0  0  0
    7.8238    0.3189    0.0000 O   0  0  0  0  0  0  0  0  0  0  0  0
    8.6246    0.1207    0.0000 C   0  0  0  0  0  0  0  0  0  0  0  0
    9.1967    0.7152    0.0000 C   0  0  0  0  0  0  0  0  0  0  0  0
    9.0520    1.5274    0.0000 C   0  0  0  0  0  0  0  0  0  0  0  0
    9.7797    1.9160    0.0000 C   0  0  0  0  0  0  0  0  0  0  0  0
   10.3742    1.3440    0.0000 N   0  0  0  0  0  0  0  0  0  0  0  0
   11.1914    1.2306    0.0000 C   0  0  0  0  0  0  0  0  0  0  0  0
   11.3361    0.4184    0.0000 C   0  0  0  0  0  0  0  0  0  0  0  0
   10.6083    0.0298    0.0000 C   0  0  2  0  0  0  0  0  0  0  0  0
   10.4950   -0.7874    0.0000 O   0  0  0  0  0  0  0  0  0  0  0  0
   10.0139    0.6018    0.0000 C   0  0  1  0  0  0  0  0  0  0  0  0
  1  2  1  0  0  0  0
  2  3  1  0  0  0  0
  3  4  1  6  0  0  0
  3  5  1  0  0  0  0
  5  6  1  0  0  0  0
  5  7  1  0  0  0  0
  7  8  1  0  0  0  0
  7  9  1  0  0  0  0
  5 10  1  0  0  0  0
 10 11  2  0  0  0  0
 10 12  1  0  0  0  0
 12 13  1  0  0  0  0
 13 14  1  0  0  0  0
 14 15  2  0  0  0  0
 15 16  1  0  0  0  0
 16 17  1  0  0  0  0
 17 18  1  0  0  0  0
 18 19  1  0  0  0  0
 19 20  1  0  0  0  0
 20 21  1  6  0  0  0
 20 22  1  0  0  0  0
 22 17  1  1  0  0  0
 14 22  1  0  0  0  0
M  END

> <ChembankId>
3616793

> <SMILES>
CO[C@H](C)C(O)(C(C)C)C(=O)OCC1=CCN2CC[C@H](O)[C@H]21

> <InChI>
1/C16H27NO5/c1-10(2)16(20,11(3)21-4)15(19)22-9-12-5-7-17-8-6-13(18)14(12)17/h5,10-11,13-14,18,20H,6-9H2,1-4H3

$$$$
3616797
  Marvin  11101114202D          

 27 32  0  0  1  0            999 V2000
   -0.3855   -2.4732    0.0000 C   0  0  0  0  0  0  0  0  0  0  0  0
    0.4232   -2.3317    0.0000 C   0  0  0  0  0  0  0  0  0  0  0  0
    0.8666   -1.6043    0.0000 N   0  0  0  0  0  0  0  0  0  0  0  0
    0.4197   -0.8647    0.0000 C   0  0  0  0  0  0  0  0  0  0  0  0
    0.7821   -0.0895    0.0000 C   0  0  2  0  0  0  0  0  0  0  0  0
   -0.0155    0.2130    0.0000 C   0  0  0  0  0  0  0  0  0  0  0  0
    1.0155    0.7352    0.0000 C   0  0  0  0  0  0  0  0  0  0  0  0
    1.8202    0.9654    0.0000 C   0  0  0  0  0  0  0  0  0  0  0  0
    2.3453    0.3251    0.0000 C   0  0  2  0  0  0  0  0  0  0  0  0
    2.6842    1.0914    0.0000 O   0  0  0  0  0  0  0  0  0  0  0  0
    2.1346   -0.5353    0.0000 C   0  0  1  0  0  0  0  0  0  0  0  0
    2.9178   -0.1091    0.0000 C   0  0  2  0  0  0  0  0  0  0  0  0
    3.6456    0.4548    0.0000 C   0  0  0  0  0  0  0  0  0  0  0  0
    4.4646   -0.2533    0.0000 C   0  0  1  0  0  0  0  0  0  0  0  0
    4.0354    0.0925    0.0000 C   0  0  0  0  0  0  0  0  0  0  0  0
    4.4310    0.8736    0.0000 O   0  0  0  0  0  0  0  0  0  0  0  0
    3.3899   -0.6478    0.0000 C   0  0  2  0  0  0  0  0  0  0  0  0
    3.3060   -1.4797    0.0000 C   0  0  2  0  0  0  0  0  0  0  0  0
    3.3161   -2.3360    0.0000 O   0  0  0  0  0  0  0  0  0  0  0  0
    4.1200   -1.6852    0.0000 C   0  0  0  0  0  0  0  0  0  0  0  0
    4.7393   -1.0995    0.0000 C   0  0  2  0  0  0  0  0  0  0  0  0
    5.5457   -1.3474    0.0000 O   0  0  0  0  0  0  0  0  0  0  0  0
    5.8457   -2.1187    0.0000 C   0  0  0  0  0  0  0  0  0  0  0  0
    2.3984   -1.7119    0.0000 C   0  0  1  0  0  0  0  0  0  0  0  0
    1.3902   -1.3704    0.0000 C   0  0  0  0  0  0  0  0  0  0  0  0
    1.4816   -0.4669    0.0000 C   0  0  2  0  0  0  0  0  0  0  0  0
    1.8221   -1.5122    0.0000 C   0  0  0  0  0  0  0  0  0  0  0  0
  1  2  1  0  0  0  0
  2  3  1  0  0  0  0
  3  4  1  0  0  0  0
  4  5  1  0  0  0  0
  5  6  1  1  0  0  0
  5  7  1  0  0  0  0
  7  8  1  0  0  0  0
  8  9  1  0  0  0  0
  9 10  1  6  0  0  0
  9 11  1  0  0  0  0
 11 12  1  0  0  0  0
 12 13  1  6  0  0  0
 14 13  1  6  0  0  0
 14 15  1  0  0  0  0
 15 16  1  0  0  0  0
 17 15  1  6  0  0  0
 12 17  1  0  0  0  0
 17 18  1  0  0  0  0
 18 19  1  1  0  0  0
 18 20  1  0  0  0  0
 20 21  1  0  0  0  0
 14 21  1  0  0  0  0
 21 22  1  1  0  0  0
 22 23  1  0  0  0  0
 18 24  1  0  0  0  0
 24 25  1  1  0  0  0
 26 25  1  6  0  0  0
 11 26  1  0  0  0  0
  5 26  1  0  0  0  0
 11 27  1  6  0  0  0
 24 27  1  0  0  0  0
  3 27  1  0  0  0  0
M  END

> <ChembankId>
3616797

> <SMILES>
CCN1C[C@]2(C)CC[C@H](O)[C@]3([C@@H]4C[C@H]5C(O)[C@@H]4[C@](O)(C[C@@H]5OC)[C@H]6C[C@@H]32)C61

> <InChI>
1/C22H35NO4/c1-4-23-10-20(2)6-5-16(24)22-12-7-11-14(27-3)9-21(26,17(12)18(11)25)13(19(22)23)8-15(20)22/h11-19,24-26H,4-10H2,1-3H3

$$$$
3616802
  Marvin  11101114202D          

 26 31  0  0  1  0            999 V2000
    1.3446    2.1003    0.0000 C   0  0  0  0  0  0  0  0  0  0  0  0
    1.9316    1.4751    0.0000 C   0  0  0  0  0  0  0  0  0  0  0  0
    1.7402    0.6335    0.0000 N   0  0  0  0  0  0  0  0  0  0  0  0
    0.9254    0.3520    0.0000 C   0  0  0  0  0  0  0  0  0  0  0  0
    0.6779   -0.4895    0.0000 C   0  0  2  0  0  0  0  0  0  0  0  0
   -0.1439   -0.2111    0.0000 C   0  0  0  0  0  0  0  0  0  0  0  0
    0.3531   -1.2967    0.0000 C   0  0  0  0  0  0  0  0  0  0  0  0
    0.8360   -1.9991    0.0000 C   0  0  0  0  0  0  0  0  0  0  0  0
    1.6784   -1.8470    0.0000 C   0  0  2  0  0  0  0  0  0  0  0  0
    1.8401   -2.7275    0.0000 O   0  0  0  0  0  0  0  0  0  0  0  0
    2.0640   -1.0180    0.0000 C   0  0  1  0  0  0  0  0  0  0  0  0
    1.4153   -0.7331    0.0000 C   0  0  2  0  0  0  0  0  0  0  0  0
    1.8157   -0.0068    0.0000 C   0  0  0  0  0  0  0  0  0  0  0  0
    2.8641   -0.2219    0.0000 C   0  0  1  0  0  0  0  0  0  0  0  0
    2.3227   -0.0077    0.0000 C   0  0  0  0  0  0  0  0  0  0  0  0
    2.8018   -1.5133    0.0000 C   0  0  2  0  0  0  0  0  0  0  0  0
    3.0983   -2.3457    0.0000 C   0  0  0  0  0  0  0  0  0  0  0  0
    3.9095   -2.5704    0.0000 C   0  0  2  0  0  0  0  0  0  0  0  0
    4.1905   -3.3794    0.0000 O   0  0  0  0  0  0  0  0  0  0  0  0
    4.4274   -1.9114    0.0000 C   0  0  1  0  0  0  0  0  0  0  0  0
    4.4161   -1.1205    0.0000 C   0  0  0  0  0  0  0  0  0  0  0  0
    3.3999   -0.9297    0.0000 C   0  0  2  0  0  0  0  0  0  0  0  0
    4.0357   -0.6157    0.0000 C   0  0  2  0  0  0  0  0  0  0  0  0
    4.5964    0.0440    0.0000 O   0  0  0  0  0  0  0  0  0  0  0  0
    3.6662   -1.5754    0.0000 C   0  0  0  0  0  0  0  0  0  0  0  0
    2.7861   -1.9868    0.0000 C   0  0  0  0  0  0  0  0  0  0  0  0
  1  2  1  0  0  0  0
  2  3  1  0  0  0  0
  3  4  1  0  0  0  0
  4  5  1  0  0  0  0
  5  6  1  6  0  0  0
  5  7  1  0  0  0  0
  7  8  1  0  0  0  0
  8  9  1  0  0  0  0
  9 10  1  1  0  0  0
  9 11  1  0  0  0  0
 11 12  1  0  0  0  0
  5 12  1  0  0  0  0
 12 13  1  1  0  0  0
 14 13  1  6  0  0  0
 14 15  1  0  0  0  0
  3 15  1  0  0  0  0
 11 15  1  1  0  0  0
 11 16  1  0  0  0  0
 16 17  1  1  0  0  0
 17 18  1  0  0  0  0
 18 19  1  1  0  0  0
 18 20  1  0  0  0  0
 20 21  1  6  0  0  0
 22 21  1  1  0  0  0
 14 22  1  0  0  0  0
 16 22  1  0  0  0  0
 22 23  1  0  0  0  0
 23 24  1  6  0  0  0
 23 25  1  0  0  0  0
 20 25  1  0  0  0  0
 25 26  2  0  0  0  0
M  END

> <ChembankId>
3616802

> <SMILES>
CCN1C[C@]2(C)CC[C@H](O)[C@]3([C@@H]2C[C@H]4C13)[C@@H]5C[C@H](O)[C@H]6C[C@]45[C@H](O)C6=C

> <InChI>
1/C22H33NO3/c1-4-23-10-20(3)6-5-17(25)22-15(20)7-13(18(22)23)21-9-12(11(2)19(21)26)14(24)8-16(21)22/h12-19,24-26H,2,4-10H2,1,3H3

$$$$
3616856
  Marvin  11101114202D          

 67 74  0  0  1  0            999 V2000
   -0.1105   -3.1086    0.0000 C   0  0  0  0  0  0  0  0  0  0  0  0
    0.3020   -3.8230    0.0000 C   0  0  2  0  0  0  0  0  0  0  0  0
   -0.1105   -4.5375    0.0000 C   0  0  0  0  0  0  0  0  0  0  0  0
    0.3020   -5.2520    0.0000 C   0  0  0  0  0  0  0  0  0  0  0  0
    1.1270   -5.2520    0.0000 C   0  0  2  0  0  0  0  0  0  0  0  0
    1.5395   -5.9664    0.0000 C   0  0  0  0  0  0  0  0  0  0  0  0
    2.3645   -5.9664    0.0000 C   0  0  0  0  0  0  0  0  0  0  0  0
    2.7770   -5.2520    0.0000 C   0  0  2  0  0  0  0  0  0  0  0  0
    3.1895   -5.9664    0.0000 C   0  0  0  0  0  0  0  0  0  0  0  0
    2.3645   -4.5375    0.0000 C   0  0  0  0  0  0  0  0  0  0  0  0
    2.7770   -3.8230    0.0000 C   0  0  0  0  0  0  0  0  0  0  0  0
    3.6020   -3.8230    0.0000 C   0  0  0  0  0  0  0  0  0  0  0  0
    4.0145   -4.5375    0.0000 C   0  0  2  0  0  0  0  0  0  0  0  0
    4.8395   -4.5375    0.0000 C   0  0  1  0  0  0  0  0  0  0  0  0
    4.4270   -3.8230    0.0000 C   0  0  0  0  0  0  0  0  0  0  0  0
    5.2520   -3.8230    0.0000 C   0  0  0  0  0  0  0  0  0  0  0  0
    6.0770   -3.8230    0.0000 C   0  0  1  0  0  0  0  0  0  0  0  0
    6.4895   -3.1086    0.0000 O   0  0  0  0  0  0  0  0  0  0  0  0
    6.4895   -4.5375    0.0000 C   0  0  2  0  0  0  0  0  0  0  0  0
    7.3145   -4.5375    0.0000 O   0  0  0  0  0  0  0  0  0  0  0  0
    6.0770   -5.2520    0.0000 C   0  0  1  0  0  0  0  0  0  0  0  0
    5.9337   -6.0644    0.0000 C   0  0  0  0  0  0  0  0  0  0  0  0
    6.8522   -5.5341    0.0000 C   0  0  0  0  0  0  0  0  0  0  0  0
    6.9955   -6.3466    0.0000 O   0  0  0  0  0  0  0  0  0  0  0  0
    5.2520   -5.2520    0.0000 C   0  0  0  0  0  0  0  0  0  0  0  0
    4.8395   -5.9664    0.0000 C   0  0  0  0  0  0  0  0  0  0  0  0
    4.0145   -5.9664    0.0000 C   0  0  0  0  0  0  0  0  0  0  0  0
    3.6020   -5.2520    0.0000 C   0  0  1  0  0  0  0  0  0  0  0  0
    3.6882   -6.0725    0.0000 C   0  0  0  0  0  0  0  0  0  0  0  0
    1.5395   -4.5375    0.0000 C   0  0  2  0  0  0  0  0  0  0  0  0
    1.1270   -3.8230    0.0000 C   0  0  1  0  0  0  0  0  0  0  0  0
    1.5395   -3.1086    0.0000 C   0  0  0  0  0  0  0  0  0  0  0  0
    0.7145   -5.9664    0.0000 C   0  0  0  0  0  0  0  0  0  0  0  0
    1.1270   -6.6809    0.0000 O   0  0  0  0  0  0  0  0  0  0  0  0
   -0.1105   -5.9664    0.0000 O   0  0  0  0  0  0  0  0  0  0  0  0
   -0.5230   -6.6809    0.0000 C   0  0  2  0  0  0  0  0  0  0  0  0
   -1.3480   -6.6809    0.0000 O   0  0  0  0  0  0  0  0  0  0  0  0
   -1.7605   -7.3954    0.0000 C   0  0  2  0  0  0  0  0  0  0  0  0
   -2.5855   -7.3954    0.0000 C   0  0  0  0  0  0  0  0  0  0  0  0
   -2.9980   -6.6809    0.0000 O   0  0  0  0  0  0  0  0  0  0  0  0
   -3.8230   -6.6809    0.0000 C   0  0  0  0  0  0  0  0  0  0  0  0
   -4.2355   -7.3954    0.0000 O   0  0  0  0  0  0  0  0  0  0  0  0
   -5.0605   -7.3954    0.0000 C   0  0  2  0  0  0  0  0  0  0  0  0
   -5.4730   -8.1099    0.0000 C   0  0  0  0  0  0  0  0  0  0  0  0
   -6.2980   -8.1099    0.0000 O   0  0  0  0  0  0  0  0  0  0  0  0
   -5.4730   -6.6809    0.0000 C   0  0  1  0  0  0  0  0  0  0  0  0
   -6.2980   -6.6809    0.0000 O   0  0  0  0  0  0  0  0  0  0  0  0
   -6.7105   -5.9664    0.0000 C   0  0  0  0  0  0  0  0  0  0  0  0
   -6.2980   -5.2520    0.0000 O   0  0  0  0  0  0  0  0  0  0  0  0
   -6.7105   -4.5375    0.0000 C   0  0  1  0  0  0  0  0  0  0  0  0
   -6.2980   -3.8230    0.0000 C   0  0  0  0  0  0  0  0  0  0  0  0
   -7.5355   -4.5375    0.0000 C   0  0  2  0  0  0  0  0  0  0  0  0
   -7.9480   -3.8230    0.0000 O   0  0  0  0  0  0  0  0  0  0  0  0
   -7.9480   -5.2520    0.0000 C   0  0  1  0  0  0  0  0  0  0  0  0
   -8.7730   -5.2520    0.0000 O   0  0  0  0  0  0  0  0  0  0  0  0
   -7.5355   -5.9664    0.0000 C   0  0  1  0  0  0  0  0  0  0  0  0
   -7.9480   -6.6809    0.0000 O   0  0  0  0  0  0  0  0  0  0  0  0
   -5.0605   -5.9664    0.0000 C   0  0  2  0  0  0  0  0  0  0  0  0
   -5.4730   -5.2520    0.0000 O   0  0  0  0  0  0  0  0  0  0  0  0
   -4.2355   -5.9664    0.0000 C   0  0  1  0  0  0  0  0  0  0  0  0
   -3.8230   -5.2520    0.0000 O   0  0  0  0  0  0  0  0  0  0  0  0
   -1.3480   -8.1099    0.0000 C   0  0  1  0  0  0  0  0  0  0  0  0
   -1.7605   -8.8243    0.0000 O   0  0  0  0  0  0  0  0  0  0  0  0
   -0.5230   -8.1099    0.0000 C   0  0  2  0  0  0  0  0  0  0  0  0
   -0.1105   -8.8243    0.0000 O   0  0  0  0  0  0  0  0  0  0  0  0
   -0.1105   -7.3954    0.0000 C   0  0  1  0  0  0  0  0  0  0  0  0
    0.7145   -7.3954    0.0000 O   0  0  0  0  0  0  0  0  0  0  0  0
  2  1  1  1  0  0  0
  2  3  1  0  0  0  0
  3  4  1  0  0  0  0
  4  5  1  0  0  0  0
  5  6  1  0  0  0  0
  6  7  1  0  0  0  0
  7  8  1  0  0  0  0
  8  9  1  1  0  0  0
  8 10  1  0  0  0  0
 10 11  2  0  0  0  0
 11 12  1  0  0  0  0
 13 12  1  6  0  0  0
 13 14  1  0  0  0  0
 14 15  1  6  0  0  0
 14 16  1  0  0  0  0
 16 17  1  0  0  0  0
 17 18  1  1  0  0  0
 17 19  1  0  0  0  0
 19 20  1  6  0  0  0
 19 21  1  0  0  0  0
 21 22  1  6  0  0  0
 21 23  1  1  0  0  0
 23 24  1  0  0  0  0
 21 25  1  0  0  0  0
 14 25  1  0  0  0  0
 25 26  1  0  0  0  0
 26 27  1  0  0  0  0
 27 28  1  0  0  0  0
 13 28  1  0  0  0  0
  8 28  1  0  0  0  0
 28 29  1  6  0  0  0
 30 10  1  1  0  0  0
  5 30  1  0  0  0  0
 30 31  1  0  0  0  0
  2 31  1  0  0  0  0
 31 32  1  6  0  0  0
  5 33  1  6  0  0  0
 33 34  2  0  0  0  0
 33 35  1  0  0  0  0
 36 35  1  1  0  0  0
 36 37  1  0  0  0  0
 37 38  1  0  0  0  0
 38 39  1  1  0  0  0
 39 40  1  0  0  0  0
 40 41  1  0  0  0  0
 41 42  1  0  0  0  0
 42 43  1  0  0  0  0
 43 44  1  6  0  0  0
 44 45  1  0  0  0  0
 43 46  1  0  0  0  0
 46 47  1  1  0  0  0
 47 48  1  0  0  0  0
 48 49  1  0  0  0  0
 49 50  1  0  0  0  0
 50 51  1  6  0  0  0
 50 52  1  0  0  0  0
 52 53  1  1  0  0  0
 52 54  1  0  0  0  0
 54 55  1  6  0  0  0
 54 56  1  0  0  0  0
 48 56  1  0  0  0  0
 56 57  1  6  0  0  0
 46 58  1  0  0  0  0
 58 59  1  6  0  0  0
 58 60  1  0  0  0  0
 41 60  1  0  0  0  0
 60 61  1  1  0  0  0
 38 62  1  0  0  0  0
 62 63  1  6  0  0  0
 62 64  1  0  0  0  0
 64 65  1  1  0  0  0
 64 66  1  0  0  0  0
 36 66  1  0  0  0  0
 66 67  1  6  0  0  0
M  END

> <ChembankId>
3616856

> <SMILES>
C[C@@H]1CC[C@@]2(CC[C@]3(C)C(=CC[C@@H]4[C@@]5(C)C[C@@H](O)[C@H](O)[C@@](C)(CO)C5CC[C@]43C)[C@@H]2[C@H]1C)C(=O)O[C@@H]6O[C@H](COC7O[C@H](CO)[C@@H](OC8O[C@@H](C)[C@H](O)[C@@H](O)[C@H]8O)[C@H](O)[C@H]7O)[C@@H](O)[C@H](O)[C@H]6O

> <InChI>
1/C48H78O19/c1-20-10-13-48(15-14-46(6)23(29(48)21(20)2)8-9-28-44(4)16-24(51)39(60)45(5,19-50)27(44)11-12-47(28,46)7)43(61)67-42-36(58)33(55)31(53)26(65-42)18-62-40-37(59)34(56)38(25(17-49)64-40)66-41-35(57)32(54)30(52)22(3)63-41/h8,20-22,24-42,49-60H,9-19H2,1-7H3

$$$$
3616862
  Marvin  11101114202D          

 35 38  0  0  1  0            999 V2000
    3.9464    2.4185    0.0000 C   0  0  0  0  0  0  0  0  0  0  0  0
    4.4313    1.7511    0.0000 C   0  0  0  0  0  0  0  0  0  0  0  0
    4.0958    0.9974    0.0000 O   0  0  0  0  0  0  0  0  0  0  0  0
    4.5807    0.3300    0.0000 C   0  0  0  0  0  0  0  0  0  0  0  0
    4.3258   -0.4547    0.0000 O   0  0  0  0  0  0  0  0  0  0  0  0
    4.9932   -0.9396    0.0000 C   0  0  0  0  0  0  0  0  0  0  0  0
    4.9932   -1.7646    0.0000 C   0  0  1  0  0  0  0  0  0  0  0  0
    4.2787   -2.1771    0.0000 C   0  0  0  0  0  0  0  0  0  0  0  0
    4.2787   -3.0021    0.0000 O   0  0  0  0  0  0  0  0  0  0  0  0
    3.5642   -3.4146    0.0000 C   0  0  0  0  0  0  0  0  0  0  0  0
    3.5642   -4.2396    0.0000 C   0  0  0  0  0  0  0  0  0  0  0  0
    4.2787   -4.6521    0.0000 C   0  0  0  0  0  0  0  0  0  0  0  0
    4.2787   -5.4771    0.0000 C   0  0  0  0  0  0  0  0  0  0  0  0
    3.5642   -5.8896    0.0000 C   0  0  0  0  0  0  0  0  0  0  0  0
    2.8498   -5.4771    0.0000 C   0  0  0  0  0  0  0  0  0  0  0  0
    2.8498   -4.6521    0.0000 C   0  0  0  0  0  0  0  0  0  0  0  0
    5.7077   -2.1771    0.0000 O   0  0  0  0  0  0  0  0  0  0  0  0
    5.7077   -3.0021    0.0000 C   0  0  0  0  0  0  0  0  0  0  0  0
    6.4221   -3.4146    0.0000 C   0  0  0  0  0  0  0  0  0  0  0  0
    7.1366   -3.0021    0.0000 C   0  0  0  0  0  0  0  0  0  0  0  0
    7.8511   -3.4146    0.0000 C   0  0  0  0  0  0  0  0  0  0  0  0
    7.8511   -4.2396    0.0000 C   0  0  0  0  0  0  0  0  0  0  0  0
    7.1366   -4.6521    0.0000 C   0  0  0  0  0  0  0  0  0  0  0  0
    6.4221   -4.2396    0.0000 C   0  0  0  0  0  0  0  0  0  0  0  0
    5.6606   -0.4547    0.0000 C   0  0  2  0  0  0  0  0  0  0  0  0
    6.4453   -0.7096    0.0000 O   0  0  0  0  0  0  0  0  0  0  0  0
    7.0583   -0.1576    0.0000 C   0  0  0  0  0  0  0  0  0  0  0  0
    7.8430   -0.4125    0.0000 C   0  0  0  0  0  0  0  0  0  0  0  0
    8.4561    0.1395    0.0000 C   0  0  0  0  0  0  0  0  0  0  0  0
    9.2407   -0.1154    0.0000 C   0  0  0  0  0  0  0  0  0  0  0  0
    9.4122   -0.9224    0.0000 C   0  0  0  0  0  0  0  0  0  0  0  0
    8.7991   -1.4744    0.0000 C   0  0  0  0  0  0  0  0  0  0  0  0
    8.0145   -1.2195    0.0000 C   0  0  0  0  0  0  0  0  0  0  0  0
    5.4057    0.3300    0.0000 C   0  0  1  0  0  0  0  0  0  0  0  0
    5.8906    0.9974    0.0000 O   0  0  0  0  0  0  0  0  0  0  0  0
  1  2  1  0  0  0  0
  2  3  1  0  0  0  0
  3  4  1  0  0  0  0
  4  5  1  0  0  0  0
  5  6  1  0  0  0  0
  6  7  1  0  0  0  0
  7  8  1  0  0  0  0
  8  9  1  0  0  0  0
  9 10  1  0  0  0  0
 10 11  1  0  0  0  0
 11 12  4  0  0  0  0
 12 13  4  0  0  0  0
 13 14  4  0  0  0  0
 14 15  4  0  0  0  0
 15 16  4  0  0  0  0
 11 16  4  0  0  0  0
  7 17  1  6  0  0  0
 17 18  1  0  0  0  0
 18 19  1  0  0  0  0
 19 20  4  0  0  0  0
 20 21  4  0  0  0  0
 21 22  4  0  0  0  0
 22 23  4  0  0  0  0
 23 24  4  0  0  0  0
 19 24  4  0  0  0  0
  6 25  1  0  0  0  0
 25 26  1  1  0  0  0
 26 27  1  0  0  0  0
 27 28  1  0  0  0  0
 28 29  4  0  0  0  0
 29 30  4  0  0  0  0
 30 31  4  0  0  0  0
 31 32  4  0  0  0  0
 32 33  4  0  0  0  0
 28 33  4  0  0  0  0
 25 34  1  0  0  0  0
  4 34  1  0  0  0  0
 34 35  1  6  0  0  0
M  END

> <ChembankId>
3616862

> <SMILES>
CCOC1O[C@H]([C@@H](COCc2ccccc2)OCc3ccccc3)[C@H](OCc4ccccc4)[C@H]1O

> <InChI>
1/C29H34O6/c1-2-32-29-26(30)28(34-20-24-16-10-5-11-17-24)27(35-29)25(33-19-23-14-8-4-9-15-23)21-31-18-22-12-6-3-7-13-22/h3-17,25-30H,2,18-21H2,1H3

$$$$
3616868
  Marvin  11101114202D          

 50 60  0  0  1  0            999 V2000
    8.8891    1.0905    0.0000 O   0  0  0  0  0  0  0  0  0  0  0  0
    8.0998    1.3353    0.0000 C   0  0  0  0  0  0  0  0  0  0  0  0
    7.4468    0.8214    0.0000 C   0  0  0  0  0  0  0  0  0  0  0  0
    6.6051    0.8643    0.0000 C   0  0  0  0  0  0  0  0  0  0  0  0
    6.0143    0.3472    0.0000 C   0  0  0  0  0  0  0  0  0  0  0  0
    5.3742    1.1332    0.0000 N   0  3  2  0  0  0  0  0  0  0  0  0
    5.3552    0.1163    0.0000 C   0  0  0  0  0  0  0  0  0  0  0  0
    5.4976   -0.7463    0.0000 C   0  0  0  0  0  0  0  0  0  0  0  0
    6.2272   -1.1382    0.0000 C   0  0  0  0  0  0  0  0  0  0  0  0
    4.8458    0.5333    0.0000 C   0  0  0  0  0  0  0  0  0  0  0  0
    4.3164    1.2865    0.0000 C   0  0  0  0  0  0  0  0  0  0  0  0
    4.7402    2.1992    0.0000 C   0  0  1  0  0  0  0  0  0  0  0  0
    5.5582    2.0257    0.0000 C   0  0  2  0  0  0  0  0  0  0  0  0
    6.1793    1.6410    0.0000 C   0  0  0  0  0  0  0  0  0  0  0  0
    5.6435    0.7420    0.0000 C   0  0  2  0  0  0  0  0  0  0  0  0
    4.6873    0.9668    0.0000 C   0  0  0  0  0  0  0  0  0  0  0  0
    3.9339    0.4964    0.0000 C   0  0  0  0  0  0  0  0  0  0  0  0
    3.0858    0.5388    0.0000 N   0  0  0  0  0  0  0  0  0  0  0  0
    2.5366    1.1826    0.0000 C   0  0  0  0  0  0  0  0  0  0  0  0
    2.6513    2.3211    0.0000 C   0  0  0  0  0  0  0  0  0  0  0  0
    3.2260    2.6987    0.0000 C   0  0  0  0  0  0  0  0  0  0  0  0
    4.0618    2.6134    0.0000 N   0  0  0  0  0  0  0  0  0  0  0  0
    4.3120    1.7514    0.0000 C   0  0  0  0  0  0  0  0  0  0  0  0
    2.0523    2.7453    0.0000 C   0  0  1  0  0  0  0  0  0  0  0  0
    1.7258    2.2216    0.0000 C   0  0  0  0  0  0  0  0  0  0  0  0
    1.2803    1.5653    0.0000 C   0  0  1  0  0  0  0  0  0  0  0  0
    1.7009    0.8728    0.0000 C   0  0  2  0  0  0  0  0  0  0  0  0
    0.9148    0.4447    0.0000 C   0  0  0  0  0  0  0  0  0  0  0  0
    0.2421    0.9640    0.0000 C   0  0  0  0  0  0  0  0  0  0  0  0
    0.5186    1.7811    0.0000 N   0  3  2  0  0  0  0  0  0  0  0  0
    1.1286    2.2563    0.0000 C   0  0  0  0  0  0  0  0  0  0  0  0
    1.8719    1.6842    0.0000 C   0  0  0  0  0  0  0  0  0  0  0  0
    2.6868    1.7026    0.0000 C   0  0  0  0  0  0  0  0  0  0  0  0
    0.2584    2.6507    0.0000 C   0  0  0  0  0  0  0  0  0  0  0  0
    1.2415    3.1237    0.0000 C   0  0  0  0  0  0  0  0  0  0  0  0
    0.5220    3.5952    0.0000 C   0  0  0  0  0  0  0  0  0  0  0  0
   -0.3226    3.6859    0.0000 C   0  0  0  0  0  0  0  0  0  0  0  0
   -0.8314    4.3365    0.0000 O   0  0  0  0  0  0  0  0  0  0  0  0
    1.8435    0.0142    0.0000 C   0  0  0  0  0  0  0  0  0  0  0  0
    1.2756   -0.5841    0.0000 C   0  0  0  0  0  0  0  0  0  0  0  0
    1.5098   -1.3752    0.0000 C   0  0  0  0  0  0  0  0  0  0  0  0
    2.3119   -1.5679    0.0000 C   0  0  0  0  0  0  0  0  0  0  0  0
    2.8799   -0.9695    0.0000 C   0  0  0  0  0  0  0  0  0  0  0  0
    2.6457   -0.1785    0.0000 C   0  0  0  0  0  0  0  0  0  0  0  0
    3.8841    1.6073    0.0000 C   0  0  0  0  0  0  0  0  0  0  0  0
    4.6935    1.7669    0.0000 C   0  0  0  0  0  0  0  0  0  0  0  0
    4.9599    2.5477    0.0000 C   0  0  0  0  0  0  0  0  0  0  0  0
    4.4170    3.1689    0.0000 C   0  0  0  0  0  0  0  0  0  0  0  0
    3.6076    3.0092    0.0000 C   0  0  0  0  0  0  0  0  0  0  0  0
    3.3411    2.2284    0.0000 C   0  0  0  0  0  0  0  0  0  0  0  0
  1  2  1  0  0  0  0
  2  3  1  0  0  0  0
  3  4  2  0  0  0  0
  4  5  1  0  0  0  0
  5  6  1  0  0  0  0
  6  7  1  1  0  0  0
  7  8  1  0  0  0  0
  8  9  2  0  0  0  0
  6 10  1  0  0  0  0
 10 11  1  0  0  0  0
 11 12  1  0  0  0  0
 12 13  1  0  0  0  0
  6 13  1  0  0  0  0
 13 14  1  6  0  0  0
 15 14  1  6  0  0  0
  4 15  1  0  0  0  0
 15 16  1  0  0  0  0
 16 17  2  0  0  0  0
 17 18  1  4  0  0  0
 18 19  1  0  0  0  0
 19 20  1  0  0  0  0
 20 21  2  0  0  0  0
 21 22  1  4  0  0  0
 22 23  1  0  0  0  0
 16 23  1  0  0  0  0
 12 23  1  0  0  0  0
 20 24  1  0  0  0  0
 24 25  1  6  0  0  0
 26 25  1  1  0  0  0
 26 27  1  0  0  0  0
 19 27  1  0  0  0  0
 27 28  1  0  0  0  0
 28 29  1  0  0  0  0
 29 30  1  0  0  0  0
 26 30  1  0  0  0  0
 30 31  1  6  0  0  0
 31 32  1  0  0  0  0
 32 33  2  0  0  0  0
 30 34  1  0  0  0  0
 34 35  1  0  0  0  0
 24 35  1  0  0  0  0
 35 36  2  0  0  0  0
 36 37  1  0  0  0  0
 37 38  1  0  0  0  0
 27 39  1  6  0  0  0
 39 40  4  0  0  0  0
 40 41  4  0  0  0  0
 41 42  4  0  0  0  0
 42 43  4  0  0  0  0
 43 44  4  0  0  0  0
 18 44  1  0  0  0  0
 39 44  4  0  0  0  0
 12 45  1  1  0  0  0
 45 46  4  0  0  0  0
 46 47  4  0  0  0  0
 47 48  4  0  0  0  0
 48 49  4  0  0  0  0
 49 50  4  0  0  0  0
 22 50  1  0  0  0  0
 45 50  4  0  0  0  0
M  CHG  2   6   1  30   1
M  END

> <ChembankId>
3616868

> <SMILES>
OC/C=C/1\C[N@+]2(CC=C)CC[C@]3([C@@H]2C[C@@H]1C4=CN5C6C(=CN7C43)[C@H]\8C[C@H]9[C@@]6(CC[N@@+]9(CC=C)C/C8=C\CO)c%10ccccc5%10)c%11ccccc7%11

> <InChI>
1/C44H50N4O2/c1-3-17-47-19-15-43-35-9-5-7-11-37(35)45-26-34-32-24-40-44(16-20-48(40,18-4-2)28-30(32)14-22-50)36-10-6-8-12-38(36)46(42(34)44)25-33(41(43)45)31(23-39(43)47)29(27-47)13-21-49/h3-14,25-26,31-32,39-42,49-50H,1-2,15-24,27-28H2/q+2

$$$$
3616896
  Marvin  11101114202D          

 52 57  0  0  1  0            999 V2000
    3.8172    0.3175    0.0000 C   0  0  0  0  0  0  0  0  0  0  0  0
    3.2390   -0.2710    0.0000 O   0  0  0  0  0  0  0  0  0  0  0  0
    3.4595   -1.0659    0.0000 C   0  0  0  0  0  0  0  0  0  0  0  0
    4.2583   -1.2724    0.0000 O   0  0  0  0  0  0  0  0  0  0  0  0
    2.8813   -1.6544    0.0000 C   0  0  0  0  0  0  0  0  0  0  0  0
    3.1019   -2.4494    0.0000 C   0  0  0  0  0  0  0  0  0  0  0  0
    2.5237   -3.0379    0.0000 C   0  0  0  0  0  0  0  0  0  0  0  0
    1.7249   -2.8314    0.0000 C   0  0  0  0  0  0  0  0  0  0  0  0
    1.5044   -2.0364    0.0000 C   0  0  0  0  0  0  0  0  0  0  0  0
    0.7106   -1.6627    0.0000 C   0  0  0  0  0  0  0  0  0  0  0  0
    0.0112   -2.0494    0.0000 C   0  0  0  0  0  0  0  0  0  0  0  0
   -0.7243   -1.6459    0.0000 C   0  0  0  0  0  0  0  0  0  0  0  0
   -0.8480   -0.8857    0.0000 N   0  0  0  0  0  0  0  0  0  0  0  0
   -1.6690   -0.7465    0.0000 C   0  0  0  0  0  0  0  0  0  0  0  0
   -2.0558   -0.0472    0.0000 C   0  0  0  0  0  0  0  0  0  0  0  0
   -1.6818    0.7174    0.0000 C   0  0  0  0  0  0  0  0  0  0  0  0
   -0.8926    0.8706    0.0000 N   0  0  0  0  0  0  0  0  0  0  0  0
   -0.7239    1.6627    0.0000 C   0  0  0  0  0  0  0  0  0  0  0  0
    0.0047    2.0496    0.0000 C   0  0  0  0  0  0  0  0  0  0  0  0
    0.7107    1.6752    0.0000 C   0  0  0  0  0  0  0  0  0  0  0  0
    0.8643    0.8567    0.0000 N   0  0  0  0  0  0  0  0  0  0  0  0
    1.6265    0.7462    0.0000 C   0  0  0  0  0  0  0  0  0  0  0  0
    2.0427    0.0179    0.0000 C   0  0  0  0  0  0  0  0  0  0  0  0
    1.6683   -0.6881    0.0000 C   0  0  0  0  0  0  0  0  0  0  0  0
    0.8501   -0.8709    0.0000 N   0  0  0  0  0  0  0  0  0  0  0  0
    2.0826   -1.4479    0.0000 C   0  0  2  0  0  0  0  0  0  0  0  0
    2.5899   -0.7973    0.0000 C   0  0  0  0  0  0  0  0  0  0  0  0
    2.0297    1.5110    0.0000 C   0  0  0  0  0  0  0  0  0  0  0  0
    2.8449    1.6379    0.0000 C   0  0  0  0  0  0  0  0  0  0  0  0
    1.4686    2.0624    0.0000 C   0  0  0  0  0  0  0  0  0  0  0  0
    1.5937    2.8779    0.0000 C   0  0  0  0  0  0  0  0  0  0  0  0
    0.9500    3.3939    0.0000 C   0  0  0  0  0  0  0  0  0  0  0  0
    1.0750    4.2094    0.0000 C   0  0  0  0  0  0  0  0  0  0  0  0
    1.8438    4.5088    0.0000 O   0  0  0  0  0  0  0  0  0  0  0  0
    0.4314    4.7254    0.0000 O   0  0  0  0  0  0  0  0  0  0  0  0
   -1.4588    2.0076    0.0000 C   0  0  0  0  0  0  0  0  0  0  0  0
   -1.6046    2.8196    0.0000 C   0  0  0  0  0  0  0  0  0  0  0  0
   -2.3807    3.0994    0.0000 C   0  0  0  0  0  0  0  0  0  0  0  0
   -2.5265    3.9114    0.0000 C   0  0  0  0  0  0  0  0  0  0  0  0
   -3.3026    4.1911    0.0000 O   0  0  0  0  0  0  0  0  0  0  0  0
   -1.8962    4.4436    0.0000 O   0  0  0  0  0  0  0  0  0  0  0  0
   -2.0393    1.4169    0.0000 C   0  0  0  0  0  0  0  0  0  0  0  0
   -2.8548    1.5419    0.0000 C   0  0  0  0  0  0  0  0  0  0  0  0
   -2.0430   -1.5110    0.0000 C   0  0  0  0  0  0  0  0  0  0  0  0
   -2.8562   -1.6502    0.0000 C   0  0  0  0  0  0  0  0  0  0  0  0
   -3.1422   -2.4241    0.0000 C   0  0  0  0  0  0  0  0  0  0  0  0
   -1.4819   -2.0624    0.0000 C   0  0  0  0  0  0  0  0  0  0  0  0
   -1.5946   -2.8797    0.0000 C   0  0  0  0  0  0  0  0  0  0  0  0
    3.9006   -2.6559    0.0000 C   0  0  0  0  0  0  0  0  0  0  0  0
    4.4788   -2.0674    0.0000 O   0  0  0  0  0  0  0  0  0  0  0  0
    4.1212   -3.4509    0.0000 O   0  0  0  0  0  0  0  0  0  0  0  0
    4.9199   -3.6574    0.0000 C   0  0  0  0  0  0  0  0  0  0  0  0
  1  2  1  0  0  0  0
  2  3  1  0  0  0  0
  3  4  2  0  0  0  0
  3  5  1  0  0  0  0
  5  6  1  0  0  0  0
  6  7  2  0  0  0  0
  7  8  1  0  0  0  0
  8  9  2  0  0  0  0
  9 10  1  0  0  0  0
 10 11  4  0  0  0  0
 11 12  4  0  0  0  0
 12 13  4  0  0  0  0
 13 14  4  0  0  0  0
 14 15  4  0  0  0  0
 15 16  4  0  0  0  0
 16 17  4  0  0  0  0
 17 18  4  0  0  0  0
 18 19  4  0  0  0  0
 19 20  4  0  0  0  0
 20 21  4  0  0  0  0
 21 22  4  0  0  0  0
 22 23  4  0  0  0  0
 23 24  4  0  0  0  0
 24 25  4  0  0  0  0
 10 25  4  0  0  0  0
 24 26  1  0  0  0  0
  5 26  1  0  0  0  0
  9 26  1  0  0  0  0
 26 27  1  1  0  0  0
 22 28  4  0  0  0  0
 28 29  1  0  0  0  0
 28 30  4  0  0  0  0
 20 30  4  0  0  0  0
 30 31  1  0  0  0  0
 31 32  1  0  0  0  0
 32 33  1  0  0  0  0
 33 34  2  0  0  0  0
 33 35  1  0  0  0  0
 18 36  4  0  0  0  0
 36 37  1  0  0  0  0
 37 38  1  0  0  0  0
 38 39  1  0  0  0  0
 39 40  2  0  0  0  0
 39 41  1  0  0  0  0
 36 42  4  0  0  0  0
 16 42  4  0  0  0  0
 42 43  1  0  0  0  0
 14 44  4  0  0  0  0
 44 45  1  0  0  0  0
 45 46  2  0  0  0  0
 44 47  4  0  0  0  0
 12 47  4  0  0  0  0
 47 48  1  0  0  0  0
  6 49  1  0  0  0  0
 49 50  2  0  0  0  0
 49 51  1  0  0  0  0
 51 52  1  0  0  0  0
M  STY  2   1 DAT   2 DAT
M  SAL   1  1  13
M  SDT   1 MRV_IMPLICIT_H                                        
M  SDD   1     0.0000    0.0000    DR    ALL  0       0  
M  SED   1 IMPL_H1
M  SAL   2  1  21
M  SDT   2 MRV_IMPLICIT_H                                        
M  SDD   2     0.0000    0.0000    DR    ALL  0       0  
M  SED   2 IMPL_H1
M  END

> <ChembankId>
3616896

> <SMILES>
COC(=O)C1C(=CC=C2c3cc4[nH]c(cc5nc(cc6[nH]c(cc(n3)[C@]12C)c(C)c6CCC(=O)O)c(CCC(=O)O)c5C)c(C=C)c4C)C(=O)OC

> <InChI>
1/C40H40N4O8/c1-8-22-19(2)28-16-33-26-12-9-25(38(49)51-6)37(39(50)52-7)40(26,5)34(44-33)18-29-21(4)24(11-14-36(47)48)32(43-29)17-31-23(10-13-35(45)46)20(3)27(42-31)15-30(22)41-28/h8-9,12,15-18,37,41,43H,1,10-11,13-14H2,2-7H3,(H,45,46)(H,47,48)

$$$$
3653000
  Marvin  11101114202D          

 21 23  0  0  0  0            999 V2000
    2.1434   -2.8875    0.0000 C   0  0  0  0  0  0  0  0  0  0  0  0
    1.4289   -2.4750    0.0000 C   0  0  0  0  0  0  0  0  0  0  0  0
    1.4289   -1.6500    0.0000 N   0  0  0  0  0  0  0  0  0  0  0  0
    0.7145   -1.2375    0.0000 C   0  0  0  0  0  0  0  0  0  0  0  0
    0.0000   -1.6500    0.0000 O   0  0  0  0  0  0  0  0  0  0  0  0
    0.7145   -0.4125    0.0000 C   0  0  0  0  0  0  0  0  0  0  0  0
    0.0000    0.0000    0.0000 C   0  0  0  0  0  0  0  0  0  0  0  0
    1.4289    0.0000    0.0000 C   0  0  0  0  0  0  0  0  0  0  0  0
    2.1434   -0.4125    0.0000 C   0  0  0  0  0  0  0  0  0  0  0  0
    2.8579    0.0000    0.0000 C   0  0  0  0  0  0  0  0  0  0  0  0
    3.5724   -0.4125    0.0000 N   0  0  0  0  0  0  0  0  0  0  0  0
    3.5724   -1.2375    0.0000 C   0  0  0  0  0  0  0  0  0  0  0  0
    4.2868   -1.6500    0.0000 N   0  0  0  0  0  0  0  0  0  0  0  0
    4.2868   -2.4750    0.0000 C   0  0  0  0  0  0  0  0  0  0  0  0
    5.0013   -2.8875    0.0000 C   0  0  0  0  0  0  0  0  0  0  0  0
    5.0013   -3.7125    0.0000 C   0  0  0  0  0  0  0  0  0  0  0  0
    4.2868   -4.1250    0.0000 C   0  0  0  0  0  0  0  0  0  0  0  0
    3.5724   -3.7125    0.0000 C   0  0  0  0  0  0  0  0  0  0  0  0
    3.5724   -2.8875    0.0000 C   0  0  0  0  0  0  0  0  0  0  0  0
    2.8579   -1.6500    0.0000 N   0  0  0  0  0  0  0  0  0  0  0  0
    2.1434   -1.2375    0.0000 C   0  0  0  0  0  0  0  0  0  0  0  0
  1  2  1  0  0  0  0
  2  3  1  0  0  0  0
  3  4  4  0  0  0  0
  4  5  2  0  0  0  0
  4  6  4  0  0  0  0
  6  7  1  0  0  0  0
  6  8  4  0  0  0  0
  8  9  4  0  0  0  0
  9 10  4  0  0  0  0
 10 11  4  0  0  0  0
 11 12  4  0  0  0  0
 12 13  1  0  0  0  0
 13 14  1  0  0  0  0
 14 15  4  0  0  0  0
 15 16  4  0  0  0  0
 16 17  4  0  0  0  0
 17 18  4  0  0  0  0
 18 19  4  0  0  0  0
 14 19  4  0  0  0  0
 12 20  4  0  0  0  0
 20 21  4  0  0  0  0
  3 21  4  0  0  0  0
  9 21  4  0  0  0  0
M  END

> <ChembankId>
3653000

> <SMILES>
CCn1c(=O)c(C)cc2cnc(Nc3ccccc3)nc12

> <InChI>


$$$$
3653001
  Marvin  11101114202D          

 32 35  0  0  0  0            999 V2000
    4.1763   -4.7586    0.0000 C   0  0  0  0  0  0  0  0  0  0  0  0
    5.0013   -4.7586    0.0000 C   0  0  0  0  0  0  0  0  0  0  0  0
    5.4138   -5.4730    0.0000 N   0  0  0  0  0  0  0  0  0  0  0  0
    5.0013   -6.1875    0.0000 C   0  0  0  0  0  0  0  0  0  0  0  0
    4.1763   -6.1875    0.0000 C   0  0  0  0  0  0  0  0  0  0  0  0
    6.2388   -5.4730    0.0000 C   0  0  0  0  0  0  0  0  0  0  0  0
    6.6513   -6.1875    0.0000 C   0  0  0  0  0  0  0  0  0  0  0  0
    7.4763   -6.1875    0.0000 O   0  0  0  0  0  0  0  0  0  0  0  0
    7.8888   -6.9020    0.0000 C   0  0  0  0  0  0  0  0  0  0  0  0
    8.7138   -6.9020    0.0000 C   0  0  0  0  0  0  0  0  0  0  0  0
    9.1263   -7.6164    0.0000 C   0  0  0  0  0  0  0  0  0  0  0  0
    8.7138   -8.3309    0.0000 C   0  0  0  0  0  0  0  0  0  0  0  0
    9.1263   -9.0454    0.0000 N   0  0  0  0  0  0  0  0  0  0  0  0
    9.9513   -9.0454    0.0000 C   0  0  0  0  0  0  0  0  0  0  0  0
   10.3638   -8.3309    0.0000 N   0  0  0  0  0  0  0  0  0  0  0  0
   11.1888   -8.3309    0.0000 C   0  0  0  0  0  0  0  0  0  0  0  0
   11.6013   -9.0454    0.0000 C   0  0  0  0  0  0  0  0  0  0  0  0
   12.4263   -9.0454    0.0000 C   0  0  0  0  0  0  0  0  0  0  0  0
   12.8388   -9.7599    0.0000 C   0  0  0  0  0  0  0  0  0  0  0  0
   12.4263  -10.4743    0.0000 C   0  0  0  0  0  0  0  0  0  0  0  0
   12.8388  -11.1888    0.0000 O   0  0  0  0  0  0  0  0  0  0  0  0
   11.6013  -10.4743    0.0000 N   0  0  0  0  0  0  0  0  0  0  0  0
   11.1888  -11.1888    0.0000 C   0  0  0  0  0  0  0  0  0  0  0  0
   11.6013  -11.9033    0.0000 C   0  0  0  0  0  0  0  0  0  0  0  0
   11.1888  -12.6177    0.0000 C   0  0  0  0  0  0  0  0  0  0  0  0
   10.3638  -12.6177    0.0000 C   0  0  0  0  0  0  0  0  0  0  0  0
    9.9513  -11.9033    0.0000 C   0  0  0  0  0  0  0  0  0  0  0  0
   10.3638  -11.1888    0.0000 C   0  0  0  0  0  0  0  0  0  0  0  0
   11.1888   -9.7599    0.0000 C   0  0  0  0  0  0  0  0  0  0  0  0
   10.3638   -9.7599    0.0000 N   0  0  0  0  0  0  0  0  0  0  0  0
    7.8888   -8.3309    0.0000 C   0  0  0  0  0  0  0  0  0  0  0  0
    7.4763   -7.6164    0.0000 C   0  0  0  0  0  0  0  0  0  0  0  0
  1  2  1  0  0  0  0
  2  3  1  0  0  0  0
  3  4  1  0  0  0  0
  4  5  1  0  0  0  0
  3  6  1  0  0  0  0
  6  7  1  0  0  0  0
  7  8  1  0  0  0  0
  8  9  1  0  0  0  0
  9 10  4  0  0  0  0
 10 11  4  0  0  0  0
 11 12  4  0  0  0  0
 12 13  1  0  0  0  0
 13 14  1  0  0  0  0
 14 15  4  0  0  0  0
 15 16  4  0  0  0  0
 16 17  4  0  0  0  0
 17 18  4  0  0  0  0
 18 19  4  0  0  0  0
 19 20  4  0  0  0  0
 20 21  2  0  0  0  0
 20 22  4  0  0  0  0
 22 23  1  0  0  0  0
 23 24  4  0  0  0  0
 24 25  4  0  0  0  0
 25 26  4  0  0  0  0
 26 27  4  0  0  0  0
 27 28  4  0  0  0  0
 23 28  4  0  0  0  0
 22 29  4  0  0  0  0
 17 29  4  0  0  0  0
 29 30  4  0  0  0  0
 14 30  4  0  0  0  0
 12 31  4  0  0  0  0
 31 32  4  0  0  0  0
  9 32  4  0  0  0  0
M  END

> <ChembankId>
3653001

> <SMILES>
CCN(CC)CCOc1ccc(Nc2ncc3ccc(=O)n(c4ccccc4)c3n2)cc1

> <InChI>


$$$$
3653002
  Marvin  11101114202D          

 27 30  0  0  0  0            999 V2000
    0.0000   -1.6500    0.0000 O   0  0  0  0  0  0  0  0  0  0  0  0
    0.7145   -1.2375    0.0000 C   0  0  0  0  0  0  0  0  0  0  0  0
    0.7145   -0.4125    0.0000 C   0  0  0  0  0  0  0  0  0  0  0  0
    1.4289    0.0000    0.0000 C   0  0  0  0  0  0  0  0  0  0  0  0
    2.1434   -0.4125    0.0000 C   0  0  0  0  0  0  0  0  0  0  0  0
    2.8579    0.0000    0.0000 C   0  0  0  0  0  0  0  0  0  0  0  0
    3.5724   -0.4125    0.0000 N   0  0  0  0  0  0  0  0  0  0  0  0
    3.5724   -1.2375    0.0000 C   0  0  0  0  0  0  0  0  0  0  0  0
    4.2868   -1.6500    0.0000 N   0  0  0  0  0  0  0  0  0  0  0  0
    5.0013   -1.2375    0.0000 C   0  0  0  0  0  0  0  0  0  0  0  0
    5.7158   -1.6500    0.0000 C   0  0  0  0  0  0  0  0  0  0  0  0
    6.4302   -1.2375    0.0000 C   0  0  0  0  0  0  0  0  0  0  0  0
    7.1447   -1.6500    0.0000 N   0  0  0  0  0  0  0  0  0  0  0  0
    7.8592   -1.2375    0.0000 C   0  0  0  0  0  0  0  0  0  0  0  0
    8.5737   -1.6500    0.0000 C   0  0  0  0  0  0  0  0  0  0  0  0
    8.5737   -2.4750    0.0000 C   0  0  0  0  0  0  0  0  0  0  0  0
    7.8592   -2.8875    0.0000 C   0  0  0  0  0  0  0  0  0  0  0  0
    7.1447   -2.4750    0.0000 C   0  0  0  0  0  0  0  0  0  0  0  0
    2.8579   -1.6500    0.0000 N   0  0  0  0  0  0  0  0  0  0  0  0
    2.1434   -1.2375    0.0000 C   0  0  0  0  0  0  0  0  0  0  0  0
    1.4289   -1.6500    0.0000 N   0  0  0  0  0  0  0  0  0  0  0  0
    1.4289   -2.4750    0.0000 C   0  0  0  0  0  0  0  0  0  0  0  0
    2.1434   -2.8875    0.0000 C   0  0  0  0  0  0  0  0  0  0  0  0
    2.1434   -3.7125    0.0000 C   0  0  0  0  0  0  0  0  0  0  0  0
    1.4289   -4.1250    0.0000 C   0  0  0  0  0  0  0  0  0  0  0  0
    0.7145   -3.7125    0.0000 C   0  0  0  0  0  0  0  0  0  0  0  0
    0.7145   -2.8875    0.0000 C   0  0  0  0  0  0  0  0  0  0  0  0
  1  2  2  0  0  0  0
  2  3  4  0  0  0  0
  3  4  4  0  0  0  0
  4  5  4  0  0  0  0
  5  6  4  0  0  0  0
  6  7  4  0  0  0  0
  7  8  4  0  0  0  0
  8  9  1  0  0  0  0
  9 10  1  0  0  0  0
 10 11  1  0  0  0  0
 11 12  1  0  0  0  0
 12 13  1  0  0  0  0
 13 14  1  0  0  0  0
 14 15  1  0  0  0  0
 15 16  1  0  0  0  0
 16 17  1  0  0  0  0
 17 18  1  0  0  0  0
 13 18  1  0  0  0  0
  8 19  4  0  0  0  0
 19 20  4  0  0  0  0
  5 20  4  0  0  0  0
 20 21  4  0  0  0  0
  2 21  4  0  0  0  0
 21 22  1  0  0  0  0
 22 23  1  0  0  0  0
 23 24  1  0  0  0  0
 24 25  1  0  0  0  0
 25 26  1  0  0  0  0
 26 27  1  0  0  0  0
 22 27  1  0  0  0  0
M  END

> <ChembankId>
3653002

> <SMILES>
O=c1ccc2cnc(NCCCN3CCCCC3)nc2n1C4CCCCC4

> <InChI>


$$$$
3653003
  Marvin  11101114202D          

 26 28  0  0  0  0            999 V2000
    0.7145   -2.8875    0.0000 C   0  0  0  0  0  0  0  0  0  0  0  0
   -0.0000   -2.4750    0.0000 C   0  0  0  0  0  0  0  0  0  0  0  0
   -0.7145   -2.8875    0.0000 C   0  0  0  0  0  0  0  0  0  0  0  0
   -1.4289   -2.4750    0.0000 C   0  0  0  0  0  0  0  0  0  0  0  0
   -2.1434   -2.8875    0.0000 I   0  0  0  0  0  0  0  0  0  0  0  0
   -1.4289   -1.6500    0.0000 C   0  0  0  0  0  0  0  0  0  0  0  0
   -0.7145   -1.2375    0.0000 C   0  0  0  0  0  0  0  0  0  0  0  0
   -0.0000   -1.6500    0.0000 C   0  0  0  0  0  0  0  0  0  0  0  0
    0.7145   -1.2375    0.0000 N   0  0  0  0  0  0  0  0  0  0  0  0
    0.7145   -0.4125    0.0000 C   0  0  0  0  0  0  0  0  0  0  0  0
   -0.0000    0.0000    0.0000 C   0  0  0  0  0  0  0  0  0  0  0  0
   -0.7145   -0.4125    0.0000 F   0  0  0  0  0  0  0  0  0  0  0  0
    0.0000    0.8250    0.0000 C   0  0  0  0  0  0  0  0  0  0  0  0
   -0.7145    1.2375    0.0000 F   0  0  0  0  0  0  0  0  0  0  0  0
    0.7145    1.2375    0.0000 C   0  0  0  0  0  0  0  0  0  0  0  0
    0.7145    2.0625    0.0000 F   0  0  0  0  0  0  0  0  0  0  0  0
    1.4289    0.8250    0.0000 C   0  0  0  0  0  0  0  0  0  0  0  0
    1.4289    0.0000    0.0000 C   0  0  0  0  0  0  0  0  0  0  0  0
    2.1434   -0.4125    0.0000 C   0  0  0  0  0  0  0  0  0  0  0  0
    2.1434   -1.2375    0.0000 O   0  0  0  0  0  0  0  0  0  0  0  0
    2.8579    0.0000    0.0000 N   0  0  0  0  0  0  0  0  0  0  0  0
    3.5724   -0.4125    0.0000 O   0  0  0  0  0  0  0  0  0  0  0  0
    4.2868    0.0000    0.0000 C   0  0  0  0  0  0  0  0  0  0  0  0
    5.0013   -0.4125    0.0000 C   0  0  0  0  0  0  0  0  0  0  0  0
    5.8263   -0.4125    0.0000 C   0  0  0  0  0  0  0  0  0  0  0  0
    5.4138   -1.1270    0.0000 C   0  0  0  0  0  0  0  0  0  0  0  0
  1  2  1  0  0  0  0
  2  3  4  0  0  0  0
  3  4  4  0  0  0  0
  4  5  1  0  0  0  0
  4  6  4  0  0  0  0
  6  7  4  0  0  0  0
  7  8  4  0  0  0  0
  2  8  4  0  0  0  0
  8  9  1  0  0  0  0
  9 10  1  0  0  0  0
 10 11  4  0  0  0  0
 11 12  1  0  0  0  0
 11 13  4  0  0  0  0
 13 14  1  0  0  0  0
 13 15  4  0  0  0  0
 15 16  1  0  0  0  0
 15 17  4  0  0  0  0
 17 18  4  0  0  0  0
 10 18  4  0  0  0  0
 18 19  1  0  0  0  0
 19 20  2  0  0  0  0
 19 21  1  0  0  0  0
 21 22  1  0  0  0  0
 22 23  1  0  0  0  0
 23 24  1  0  0  0  0
 24 25  1  0  0  0  0
 25 26  1  0  0  0  0
 24 26  1  0  0  0  0
M  END

> <ChembankId>
3653003

> <SMILES>
Cc1cc(I)ccc1Nc2c(F)c(F)c(F)cc2C(=O)NOCC3CC3

> <InChI>


$$$$
3653004
  Marvin  11101114202D          

 32 36  0  0  0  0            999 V2000
    1.4289   -2.4750    0.0000 C   0  0  0  0  0  0  0  0  0  0  0  0
    1.4289   -1.6500    0.0000 C   0  0  0  0  0  0  0  0  0  0  0  0
    0.7145   -1.2375    0.0000 C   0  0  0  0  0  0  0  0  0  0  0  0
    0.7145   -0.4125    0.0000 C   0  0  0  0  0  0  0  0  0  0  0  0
    0.0000    0.0000    0.0000 O   0  0  0  0  0  0  0  0  0  0  0  0
    1.4289    0.0000    0.0000 N   0  0  0  0  0  0  0  0  0  0  0  0
    1.4289    0.8250    0.0000 C   0  0  0  0  0  0  0  0  0  0  0  0
    0.7615    1.3099    0.0000 C   0  0  0  0  0  0  0  0  0  0  0  0
    1.0164    2.0945    0.0000 C   0  0  0  0  0  0  0  0  0  0  0  0
    1.8414    2.0945    0.0000 C   0  0  0  0  0  0  0  0  0  0  0  0
    2.0964    1.3099    0.0000 C   0  0  0  0  0  0  0  0  0  0  0  0
    2.1434   -0.4125    0.0000 C   0  0  0  0  0  0  0  0  0  0  0  0
    2.8579    0.0000    0.0000 N   0  0  0  0  0  0  0  0  0  0  0  0
    3.5724   -0.4125    0.0000 C   0  0  0  0  0  0  0  0  0  0  0  0
    4.2868   -0.0000    0.0000 N   0  0  0  0  0  0  0  0  0  0  0  0
    5.0013   -0.4125    0.0000 C   0  0  0  0  0  0  0  0  0  0  0  0
    5.7158   -0.0000    0.0000 C   0  0  0  0  0  0  0  0  0  0  0  0
    6.4302   -0.4125    0.0000 C   0  0  0  0  0  0  0  0  0  0  0  0
    6.4302   -1.2375    0.0000 C   0  0  0  0  0  0  0  0  0  0  0  0
    5.7158   -1.6500    0.0000 C   0  0  0  0  0  0  0  0  0  0  0  0
    5.0013   -1.2375    0.0000 C   0  0  0  0  0  0  0  0  0  0  0  0
    7.1447   -1.6500    0.0000 N   0  0  0  0  0  0  0  0  0  0  0  0
    7.8592   -1.2375    0.0000 C   0  0  0  0  0  0  0  0  0  0  0  0
    8.5737   -1.6500    0.0000 C   0  0  0  0  0  0  0  0  0  0  0  0
    8.5737   -2.4750    0.0000 N   0  0  0  0  0  0  0  0  0  0  0  0
    7.8592   -2.8875    0.0000 C   0  0  0  0  0  0  0  0  0  0  0  0
    8.3895   -3.5195    0.0000 C   0  0  0  0  0  0  0  0  0  0  0  0
    7.3289   -3.5195    0.0000 C   0  0  0  0  0  0  0  0  0  0  0  0
    7.1447   -2.4750    0.0000 C   0  0  0  0  0  0  0  0  0  0  0  0
    3.5724   -1.2375    0.0000 N   0  0  0  0  0  0  0  0  0  0  0  0
    2.8579   -1.6500    0.0000 C   0  0  0  0  0  0  0  0  0  0  0  0
    2.1434   -1.2375    0.0000 C   0  0  0  0  0  0  0  0  0  0  0  0
  1  2  1  0  0  0  0
  2  3  4  0  0  0  0
  3  4  4  0  0  0  0
  4  5  2  0  0  0  0
  4  6  4  0  0  0  0
  6  7  1  0  0  0  0
  7  8  1  0  0  0  0
  8  9  1  0  0  0  0
  9 10  1  0  0  0  0
 10 11  1  0  0  0  0
  7 11  1  0  0  0  0
  6 12  4  0  0  0  0
 12 13  4  0  0  0  0
 13 14  4  0  0  0  0
 14 15  1  0  0  0  0
 15 16  1  0  0  0  0
 16 17  4  0  0  0  0
 17 18  4  0  0  0  0
 18 19  4  0  0  0  0
 19 20  4  0  0  0  0
 20 21  4  0  0  0  0
 16 21  4  0  0  0  0
 19 22  1  0  0  0  0
 22 23  1  0  0  0  0
 23 24  1  0  0  0  0
 24 25  1  0  0  0  0
 25 26  1  0  0  0  0
 26 27  1  0  0  0  0
 26 28  1  0  0  0  0
 26 29  1  0  0  0  0
 22 29  1  0  0  0  0
 14 30  4  0  0  0  0
 30 31  4  0  0  0  0
 31 32  4  0  0  0  0
  2 32  4  0  0  0  0
 12 32  4  0  0  0  0
M  END

> <ChembankId>
3653004

> <SMILES>
Cc1cc(=O)n(C2CCCC2)c3nc(Nc4ccc(cc4)N5CCNC(C)(C)C5)ncc13

> <InChI>


$$$$
3653005
  Marvin  11101114202D          

 24 25  0  0  0  0            999 V2000
    1.4289   -4.9500    0.0000 O   0  0  0  0  0  0  0  0  0  0  0  0
    2.1434   -5.3625    0.0000 C   0  0  0  0  0  0  0  0  0  0  0  0
    2.8579   -4.9500    0.0000 C   0  0  0  0  0  0  0  0  0  0  0  0
    3.5724   -5.3625    0.0000 O   0  0  0  0  0  0  0  0  0  0  0  0
    4.2868   -4.9500    0.0000 N   0  0  0  0  0  0  0  0  0  0  0  0
    5.0013   -5.3625    0.0000 C   0  0  0  0  0  0  0  0  0  0  0  0
    5.0013   -6.1875    0.0000 O   0  0  0  0  0  0  0  0  0  0  0  0
    5.7158   -4.9500    0.0000 C   0  0  0  0  0  0  0  0  0  0  0  0
    5.7158   -4.1250    0.0000 C   0  0  0  0  0  0  0  0  0  0  0  0
    6.4302   -3.7125    0.0000 C   0  0  0  0  0  0  0  0  0  0  0  0
    7.1447   -4.1250    0.0000 C   0  0  0  0  0  0  0  0  0  0  0  0
    7.8592   -3.7125    0.0000 F   0  0  0  0  0  0  0  0  0  0  0  0
    7.1447   -4.9500    0.0000 C   0  0  0  0  0  0  0  0  0  0  0  0
    7.8592   -5.3625    0.0000 F   0  0  0  0  0  0  0  0  0  0  0  0
    6.4302   -5.3625    0.0000 C   0  0  0  0  0  0  0  0  0  0  0  0
    6.4302   -6.1875    0.0000 N   0  0  0  0  0  0  0  0  0  0  0  0
    7.1447   -6.6000    0.0000 C   0  0  0  0  0  0  0  0  0  0  0  0
    7.8592   -6.1875    0.0000 C   0  0  0  0  0  0  0  0  0  0  0  0
    8.5737   -6.6000    0.0000 C   0  0  0  0  0  0  0  0  0  0  0  0
    8.5737   -7.4250    0.0000 C   0  0  0  0  0  0  0  0  0  0  0  0
    9.2881   -7.8375    0.0000 I   0  0  0  0  0  0  0  0  0  0  0  0
    7.8592   -7.8375    0.0000 C   0  0  0  0  0  0  0  0  0  0  0  0
    7.1447   -7.4250    0.0000 C   0  0  0  0  0  0  0  0  0  0  0  0
    6.4302   -7.8375    0.0000 F   0  0  0  0  0  0  0  0  0  0  0  0
  1  2  1  0  0  0  0
  2  3  1  0  0  0  0
  3  4  1  0  0  0  0
  4  5  1  0  0  0  0
  5  6  1  0  0  0  0
  6  7  2  0  0  0  0
  6  8  1  0  0  0  0
  8  9  4  0  0  0  0
  9 10  4  0  0  0  0
 10 11  4  0  0  0  0
 11 12  1  0  0  0  0
 11 13  4  0  0  0  0
 13 14  1  0  0  0  0
 13 15  4  0  0  0  0
  8 15  4  0  0  0  0
 15 16  1  0  0  0  0
 16 17  1  0  0  0  0
 17 18  4  0  0  0  0
 18 19  4  0  0  0  0
 19 20  4  0  0  0  0
 20 21  1  0  0  0  0
 20 22  4  0  0  0  0
 22 23  4  0  0  0  0
 17 23  4  0  0  0  0
 23 24  1  0  0  0  0
M  END

> <ChembankId>
3653005

> <SMILES>
OCCONC(=O)c1ccc(F)c(F)c1Nc2ccc(I)cc2F

> <InChI>


$$$$
3653006
  Marvin  11101114202D          

 26 27  0  0  0  0            999 V2000
    0.7145   -5.3625    0.0000 O   0  0  0  0  0  0  0  0  0  0  0  0
    1.4289   -4.9500    0.0000 C   0  0  0  0  0  0  0  0  0  0  0  0
    2.1434   -5.3625    0.0000 C   0  0  0  0  0  0  0  0  0  0  0  0
    2.1434   -6.1875    0.0000 O   0  0  0  0  0  0  0  0  0  0  0  0
    2.8579   -4.9500    0.0000 C   0  0  0  0  0  0  0  0  0  0  0  0
    3.5724   -5.3625    0.0000 O   0  0  0  0  0  0  0  0  0  0  0  0
    4.2868   -4.9500    0.0000 N   0  0  0  0  0  0  0  0  0  0  0  0
    5.0013   -5.3625    0.0000 C   0  0  0  0  0  0  0  0  0  0  0  0
    5.0013   -6.1875    0.0000 O   0  0  0  0  0  0  0  0  0  0  0  0
    5.7158   -4.9500    0.0000 C   0  0  0  0  0  0  0  0  0  0  0  0
    5.7158   -4.1250    0.0000 C   0  0  0  0  0  0  0  0  0  0  0  0
    6.4302   -3.7125    0.0000 C   0  0  0  0  0  0  0  0  0  0  0  0
    7.1447   -4.1250    0.0000 C   0  0  0  0  0  0  0  0  0  0  0  0
    7.8592   -3.7125    0.0000 F   0  0  0  0  0  0  0  0  0  0  0  0
    7.1447   -4.9500    0.0000 C   0  0  0  0  0  0  0  0  0  0  0  0
    7.8592   -5.3625    0.0000 F   0  0  0  0  0  0  0  0  0  0  0  0
    6.4302   -5.3625    0.0000 C   0  0  0  0  0  0  0  0  0  0  0  0
    6.4302   -6.1875    0.0000 N   0  0  0  0  0  0  0  0  0  0  0  0
    7.1447   -6.6000    0.0000 C   0  0  0  0  0  0  0  0  0  0  0  0
    7.8592   -6.1875    0.0000 C   0  0  0  0  0  0  0  0  0  0  0  0
    8.5737   -6.6000    0.0000 C   0  0  0  0  0  0  0  0  0  0  0  0
    8.5737   -7.4250    0.0000 C   0  0  0  0  0  0  0  0  0  0  0  0
    9.2881   -7.8375    0.0000 I   0  0  0  0  0  0  0  0  0  0  0  0
    7.8592   -7.8375    0.0000 C   0  0  0  0  0  0  0  0  0  0  0  0
    7.1447   -7.4250    0.0000 C   0  0  0  0  0  0  0  0  0  0  0  0
    6.4302   -7.8375    0.0000 F   0  0  0  0  0  0  0  0  0  0  0  0
  1  2  1  0  0  0  0
  2  3  1  0  0  0  0
  3  4  1  0  0  0  0
  3  5  1  0  0  0  0
  5  6  1  0  0  0  0
  6  7  1  0  0  0  0
  7  8  1  0  0  0  0
  8  9  2  0  0  0  0
  8 10  1  0  0  0  0
 10 11  4  0  0  0  0
 11 12  4  0  0  0  0
 12 13  4  0  0  0  0
 13 14  1  0  0  0  0
 13 15  4  0  0  0  0
 15 16  1  0  0  0  0
 15 17  4  0  0  0  0
 10 17  4  0  0  0  0
 17 18  1  0  0  0  0
 18 19  1  0  0  0  0
 19 20  4  0  0  0  0
 20 21  4  0  0  0  0
 21 22  4  0  0  0  0
 22 23  1  0  0  0  0
 22 24  4  0  0  0  0
 24 25  4  0  0  0  0
 19 25  4  0  0  0  0
 25 26  1  0  0  0  0
M  END

> <ChembankId>
3653006

> <SMILES>
OCC(O)CONC(=O)c1ccc(F)c(F)c1Nc2ccc(I)cc2F

> <InChI>


$$$$
3653007
  Marvin  11101114202D          

 18 20  0  0  0  0            999 V2000
    2.0367   -0.4741    0.0000 N   0  0  0  0  0  0  0  0  0  0  0  0
    2.0367   -1.2991    0.0000 C   0  0  0  0  0  0  0  0  0  0  0  0
    2.7041   -1.7840    0.0000 C   0  0  0  0  0  0  0  0  0  0  0  0
    2.4492   -2.5687    0.0000 C   0  0  0  0  0  0  0  0  0  0  0  0
    1.6242   -2.5687    0.0000 N   0  0  0  0  0  0  0  0  0  0  0  0
    1.3693   -1.7840    0.0000 N   0  0  0  0  0  0  0  0  0  0  0  0
    2.9341   -3.2361    0.0000 C   0  0  0  0  0  0  0  0  0  0  0  0
    3.7546   -3.1499    0.0000 C   0  0  0  0  0  0  0  0  0  0  0  0
    4.2395   -3.8173    0.0000 C   0  0  0  0  0  0  0  0  0  0  0  0
    3.9040   -4.5710    0.0000 C   0  0  0  0  0  0  0  0  0  0  0  0
    3.0835   -4.6572    0.0000 N   0  0  0  0  0  0  0  0  0  0  0  0
    2.5986   -3.9898    0.0000 C   0  0  0  0  0  0  0  0  0  0  0  0
    2.7512   -0.0616    0.0000 C   0  0  0  0  0  0  0  0  0  0  0  0
    2.7512    0.7634    0.0000 C   0  0  0  0  0  0  0  0  0  0  0  0
    3.4656    1.1759    0.0000 C   0  0  0  0  0  0  0  0  0  0  0  0
    4.1801    0.7634    0.0000 C   0  0  0  0  0  0  0  0  0  0  0  0
    4.1801   -0.0616    0.0000 C   0  0  0  0  0  0  0  0  0  0  0  0
    3.4656   -0.4741    0.0000 C   0  0  0  0  0  0  0  0  0  0  0  0
  1  2  1  0  0  0  0
  2  3  4  0  0  0  0
  3  4  4  0  0  0  0
  4  5  4  0  0  0  0
  5  6  4  0  0  0  0
  2  6  4  0  0  0  0
  4  7  1  0  0  0  0
  7  8  4  0  0  0  0
  8  9  4  0  0  0  0
  9 10  4  0  0  0  0
 10 11  4  0  0  0  0
 11 12  4  0  0  0  0
  7 12  4  0  0  0  0
  1 13  1  0  0  0  0
 13 14  4  0  0  0  0
 14 15  4  0  0  0  0
 15 16  4  0  0  0  0
 16 17  4  0  0  0  0
 17 18  4  0  0  0  0
 13 18  4  0  0  0  0
M  STY  1   1 DAT
M  SAL   1  1   5
M  SDT   1 MRV_IMPLICIT_H                                        
M  SDD   1     0.0000    0.0000    DR    ALL  0       0  
M  SED   1 IMPL_H1
M  END

> <ChembankId>
3653007

> <SMILES>
N(c1cc([nH]n1)c2cccnc2)c3ccccc3

> <InChI>


$$$$
3653008
  Marvin  11101114202D          

 37 42  0  0  0  0            999 V2000
    1.8889    1.7375    0.0000 C   0  0  0  0  0  0  0  0  0  0  0  0
    1.6340    0.9529    0.0000 N   0  0  0  0  0  0  0  0  0  0  0  0
    0.8494    0.6979    0.0000 C   0  0  0  0  0  0  0  0  0  0  0  0
    0.8494   -0.1271    0.0000 C   0  0  0  0  0  0  0  0  0  0  0  0
    1.6340   -0.3820    0.0000 N   0  0  0  0  0  0  0  0  0  0  0  0
    2.1189    0.2854    0.0000 C   0  0  0  0  0  0  0  0  0  0  0  0
    2.9439    0.2854    0.0000 C   0  0  0  0  0  0  0  0  0  0  0  0
    3.4288    0.9529    0.0000 C   0  0  0  0  0  0  0  0  0  0  0  0
    4.2135    0.6979    0.0000 C   0  0  0  0  0  0  0  0  0  0  0  0
    4.9279    1.1104    0.0000 N   0  0  0  0  0  0  0  0  0  0  0  0
    5.6424    0.6979    0.0000 C   0  0  0  0  0  0  0  0  0  0  0  0
    5.6424   -0.1271    0.0000 C   0  0  0  0  0  0  0  0  0  0  0  0
    4.9279   -0.5396    0.0000 C   0  0  0  0  0  0  0  0  0  0  0  0
    4.9279   -1.3646    0.0000 O   0  0  0  0  0  0  0  0  0  0  0  0
    4.2135   -1.7771    0.0000 C   0  0  0  0  0  0  0  0  0  0  0  0
    4.2135   -2.6021    0.0000 C   0  0  0  0  0  0  0  0  0  0  0  0
    3.4990   -3.0146    0.0000 C   0  0  0  0  0  0  0  0  0  0  0  0
    2.7845   -2.6021    0.0000 C   0  0  0  0  0  0  0  0  0  0  0  0
    2.0701   -3.0146    0.0000 C   0  0  0  0  0  0  0  0  0  0  0  0
    1.3556   -2.6021    0.0000 C   0  0  0  0  0  0  0  0  0  0  0  0
    1.3556   -1.7771    0.0000 C   0  0  0  0  0  0  0  0  0  0  0  0
    2.0701   -1.3646    0.0000 C   0  0  0  0  0  0  0  0  0  0  0  0
    2.7845   -1.7771    0.0000 C   0  0  0  0  0  0  0  0  0  0  0  0
    3.4990   -1.3646    0.0000 C   0  0  0  0  0  0  0  0  0  0  0  0
    2.0701   -3.8396    0.0000 C   0  0  0  0  0  0  0  0  0  0  0  0
    1.3556   -4.2521    0.0000 O   0  0  0  0  0  0  0  0  0  0  0  0
    2.7845   -4.2521    0.0000 N   0  0  0  0  0  0  0  0  0  0  0  0
    2.7845   -5.0771    0.0000 C   0  0  0  0  0  0  0  0  0  0  0  0
    3.4990   -5.4896    0.0000 C   0  0  0  0  0  0  0  0  0  0  0  0
    3.4990   -6.3146    0.0000 N   0  0  0  0  0  0  0  0  0  0  0  0
    4.2135   -6.7271    0.0000 C   0  0  0  0  0  0  0  0  0  0  0  0
    4.2135   -7.5521    0.0000 C   0  0  0  0  0  0  0  0  0  0  0  0
    3.4990   -7.9646    0.0000 O   0  0  0  0  0  0  0  0  0  0  0  0
    2.7845   -7.5521    0.0000 C   0  0  0  0  0  0  0  0  0  0  0  0
    2.7845   -6.7271    0.0000 C   0  0  0  0  0  0  0  0  0  0  0  0
    4.2135   -0.1271    0.0000 C   0  0  0  0  0  0  0  0  0  0  0  0
    3.4288   -0.3820    0.0000 S   0  0  0  0  0  0  0  0  0  0  0  0
  1  2  1  0  0  0  0
  2  3  4  0  0  0  0
  3  4  4  0  0  0  0
  4  5  4  0  0  0  0
  5  6  4  0  0  0  0
  2  6  4  0  0  0  0
  6  7  1  0  0  0  0
  7  8  4  0  0  0  0
  8  9  4  0  0  0  0
  9 10  4  0  0  0  0
 10 11  4  0  0  0  0
 11 12  4  0  0  0  0
 12 13  4  0  0  0  0
 13 14  1  0  0  0  0
 14 15  1  0  0  0  0
 15 16  4  0  0  0  0
 16 17  4  0  0  0  0
 17 18  4  0  0  0  0
 18 19  4  0  0  0  0
 19 20  4  0  0  0  0
 20 21  4  0  0  0  0
 21 22  4  0  0  0  0
 22 23  4  0  0  0  0
 18 23  4  0  0  0  0
 23 24  4  0  0  0  0
 15 24  4  0  0  0  0
 19 25  1  0  0  0  0
 25 26  2  0  0  0  0
 25 27  1  0  0  0  0
 27 28  1  0  0  0  0
 28 29  1  0  0  0  0
 29 30  1  0  0  0  0
 30 31  1  0  0  0  0
 31 32  1  0  0  0  0
 32 33  1  0  0  0  0
 33 34  1  0  0  0  0
 34 35  1  0  0  0  0
 30 35  1  0  0  0  0
 13 36  4  0  0  0  0
  9 36  4  0  0  0  0
 36 37  4  0  0  0  0
  7 37  4  0  0  0  0
M  END

> <ChembankId>
3653008

> <SMILES>
Cn1ccnc1c2cc3nccc(Oc4ccc5c(cccc5c4)C(=O)NCCN6CCOCC6)c3s2

> <InChI>


$$$$
3653009
  Marvin  11101114202D          

 31 35  0  0  0  0            999 V2000
   -0.7145   -0.4125    0.0000 C   0  0  0  0  0  0  0  0  0  0  0  0
    0.0000    0.0000    0.0000 O   0  0  0  0  0  0  0  0  0  0  0  0
    0.7145   -0.4125    0.0000 C   0  0  0  0  0  0  0  0  0  0  0  0
    1.4289    0.0000    0.0000 C   0  0  0  0  0  0  0  0  0  0  0  0
    2.1434   -0.4125    0.0000 C   0  0  0  0  0  0  0  0  0  0  0  0
    2.8579    0.0000    0.0000 N   0  0  0  0  0  0  0  0  0  0  0  0
    3.5724   -0.4125    0.0000 C   0  0  0  0  0  0  0  0  0  0  0  0
    3.5724   -1.2375    0.0000 N   0  0  0  0  0  0  0  0  0  0  0  0
    2.8579   -1.6500    0.0000 C   0  0  0  0  0  0  0  0  0  0  0  0
    2.8579   -2.4750    0.0000 N   0  0  0  0  0  0  0  0  0  0  0  0
    3.5253   -2.9599    0.0000 C   0  0  0  0  0  0  0  0  0  0  0  0
    3.2704   -3.7445    0.0000 C   0  0  0  0  0  0  0  0  0  0  0  0
    2.4454   -3.7445    0.0000 C   0  0  0  0  0  0  0  0  0  0  0  0
    1.8934   -4.3576    0.0000 C   0  0  0  0  0  0  0  0  0  0  0  0
    1.0864   -4.1861    0.0000 C   0  0  0  0  0  0  0  0  0  0  0  0
    0.5343   -4.7992    0.0000 O   0  0  0  0  0  0  0  0  0  0  0  0
    0.7893   -5.5838    0.0000 C   0  0  0  0  0  0  0  0  0  0  0  0
    0.2373   -6.1969    0.0000 C   0  0  0  0  0  0  0  0  0  0  0  0
    0.4922   -6.9815    0.0000 C   0  0  0  0  0  0  0  0  0  0  0  0
   -0.0598   -7.5946    0.0000 C   0  0  0  0  0  0  0  0  0  0  0  0
   -0.8668   -7.4231    0.0000 C   0  0  0  0  0  0  0  0  0  0  0  0
   -1.1218   -6.6385    0.0000 C   0  0  0  0  0  0  0  0  0  0  0  0
   -0.5697   -6.0254    0.0000 C   0  0  0  0  0  0  0  0  0  0  0  0
    0.8314   -3.4015    0.0000 C   0  0  0  0  0  0  0  0  0  0  0  0
    1.3835   -2.7884    0.0000 C   0  0  0  0  0  0  0  0  0  0  0  0
    2.1904   -2.9599    0.0000 C   0  0  0  0  0  0  0  0  0  0  0  0
    2.1434   -1.2375    0.0000 C   0  0  0  0  0  0  0  0  0  0  0  0
    1.4289   -1.6500    0.0000 C   0  0  0  0  0  0  0  0  0  0  0  0
    0.7145   -1.2375    0.0000 C   0  0  0  0  0  0  0  0  0  0  0  0
    0.0000   -1.6500    0.0000 O   0  0  0  0  0  0  0  0  0  0  0  0
   -0.7145   -1.2375    0.0000 C   0  0  0  0  0  0  0  0  0  0  0  0
  1  2  1  0  0  0  0
  2  3  1  0  0  0  0
  3  4  4  0  0  0  0
  4  5  4  0  0  0  0
  5  6  4  0  0  0  0
  6  7  4  0  0  0  0
  7  8  4  0  0  0  0
  8  9  4  0  0  0  0
  9 10  1  0  0  0  0
 10 11  1  0  0  0  0
 11 12  1  0  0  0  0
 12 13  1  0  0  0  0
 13 14  4  0  0  0  0
 14 15  4  0  0  0  0
 15 16  1  0  0  0  0
 16 17  1  0  0  0  0
 17 18  1  0  0  0  0
 18 19  4  0  0  0  0
 19 20  4  0  0  0  0
 20 21  4  0  0  0  0
 21 22  4  0  0  0  0
 22 23  4  0  0  0  0
 18 23  4  0  0  0  0
 15 24  4  0  0  0  0
 24 25  4  0  0  0  0
 25 26  4  0  0  0  0
 10 26  1  0  0  0  0
 13 26  4  0  0  0  0
  9 27  4  0  0  0  0
  5 27  4  0  0  0  0
 27 28  4  0  0  0  0
 28 29  4  0  0  0  0
  3 29  4  0  0  0  0
 29 30  1  0  0  0  0
 30 31  1  0  0  0  0
M  END

> <ChembankId>
3653009

> <SMILES>
COc1cc2ncnc(N3CCc4cc(OCc5ccccc5)ccc34)c2cc1OC

> <InChI>


$$$$
3653010
  Marvin  11101114202D          

 26 29  0  0  0  0            999 V2000
   -5.3190   -1.5038    0.0000 C   0  0  0  0  0  0  0  0  0  0  0  0
   -4.5120   -1.3323    0.0000 O   0  0  0  0  0  0  0  0  0  0  0  0
   -3.9600   -1.9454    0.0000 C   0  0  0  0  0  0  0  0  0  0  0  0
   -3.1530   -1.7739    0.0000 C   0  0  0  0  0  0  0  0  0  0  0  0
   -2.6010   -2.3870    0.0000 C   0  0  0  0  0  0  0  0  0  0  0  0
   -1.7940   -2.2155    0.0000 C   0  0  0  0  0  0  0  0  0  0  0  0
   -1.2420   -2.8285    0.0000 N   0  0  0  0  0  0  0  0  0  0  0  0
   -1.4969   -3.6132    0.0000 C   0  0  0  0  0  0  0  0  0  0  0  0
   -2.3039   -3.7847    0.0000 N   0  0  0  0  0  0  0  0  0  0  0  0
   -2.8560   -3.1716    0.0000 C   0  0  0  0  0  0  0  0  0  0  0  0
   -3.6629   -3.3431    0.0000 C   0  0  0  0  0  0  0  0  0  0  0  0
   -4.2150   -2.7300    0.0000 C   0  0  0  0  0  0  0  0  0  0  0  0
   -5.0219   -2.9016    0.0000 O   0  0  0  0  0  0  0  0  0  0  0  0
   -5.2769   -3.6862    0.0000 C   0  0  0  0  0  0  0  0  0  0  0  0
   -6.0838   -3.8577    0.0000 C   0  0  0  0  0  0  0  0  0  0  0  0
   -6.3388   -4.6423    0.0000 O   0  0  0  0  0  0  0  0  0  0  0  0
   -1.5391   -1.4308    0.0000 N   0  0  0  0  0  0  0  0  0  0  0  0
   -2.0240   -0.7634    0.0000 C   0  0  0  0  0  0  0  0  0  0  0  0
   -1.5391   -0.0960    0.0000 C   0  0  0  0  0  0  0  0  0  0  0  0
   -0.7545   -0.3509    0.0000 C   0  0  0  0  0  0  0  0  0  0  0  0
   -0.0400    0.0616    0.0000 C   0  0  0  0  0  0  0  0  0  0  0  0
    0.6745   -0.3509    0.0000 C   0  0  0  0  0  0  0  0  0  0  0  0
    0.6745   -1.1759    0.0000 C   0  0  0  0  0  0  0  0  0  0  0  0
    1.3889   -1.5884    0.0000 Cl  0  0  0  0  0  0  0  0  0  0  0  0
   -0.0400   -1.5884    0.0000 C   0  0  0  0  0  0  0  0  0  0  0  0
   -0.7545   -1.1759    0.0000 C   0  0  0  0  0  0  0  0  0  0  0  0
  1  2  1  0  0  0  0
  2  3  1  0  0  0  0
  3  4  4  0  0  0  0
  4  5  4  0  0  0  0
  5  6  4  0  0  0  0
  6  7  4  0  0  0  0
  7  8  4  0  0  0  0
  8  9  4  0  0  0  0
  9 10  4  0  0  0  0
  5 10  4  0  0  0  0
 10 11  4  0  0  0  0
 11 12  4  0  0  0  0
  3 12  4  0  0  0  0
 12 13  1  0  0  0  0
 13 14  1  0  0  0  0
 14 15  1  0  0  0  0
 15 16  1  0  0  0  0
  6 17  1  0  0  0  0
 17 18  1  0  0  0  0
 18 19  1  0  0  0  0
 19 20  1  0  0  0  0
 20 21  4  0  0  0  0
 21 22  4  0  0  0  0
 22 23  4  0  0  0  0
 23 24  1  0  0  0  0
 23 25  4  0  0  0  0
 25 26  4  0  0  0  0
 17 26  1  0  0  0  0
 20 26  4  0  0  0  0
M  END

> <ChembankId>
3653010

> <SMILES>
COc1cc2c(ncnc2cc1OCCO)N3CCc4ccc(Cl)cc34

> <InChI>


$$$$
3653011
  Marvin  11101114202D          

 33 36  0  0  0  0            999 V2000
   -2.1434   -1.2375    0.0000 C   0  0  0  0  0  0  0  0  0  0  0  0
   -2.1434   -2.0625    0.0000 C   0  0  0  0  0  0  0  0  0  0  0  0
   -2.8579   -2.4750    0.0000 N   0  0  0  0  0  0  0  0  0  0  0  0
   -1.4289   -2.4750    0.0000 C   0  0  0  0  0  0  0  0  0  0  0  0
   -1.4289   -3.3000    0.0000 O   0  0  0  0  0  0  0  0  0  0  0  0
   -0.7145   -2.0625    0.0000 C   0  0  0  0  0  0  0  0  0  0  0  0
    0.0000   -1.6500    0.0000 C   0  0  0  0  0  0  0  0  0  0  0  0
    0.7145   -1.2375    0.0000 C   0  0  0  0  0  0  0  0  0  0  0  0
    0.7145   -0.4125    0.0000 C   0  0  0  0  0  0  0  0  0  0  0  0
    1.4289    0.0000    0.0000 C   0  0  0  0  0  0  0  0  0  0  0  0
    2.1434   -0.4125    0.0000 C   0  0  0  0  0  0  0  0  0  0  0  0
    2.8579    0.0000    0.0000 N   0  0  0  0  0  0  0  0  0  0  0  0
    3.5724   -0.4125    0.0000 C   0  0  0  0  0  0  0  0  0  0  0  0
    3.5724   -1.2375    0.0000 N   0  0  0  0  0  0  0  0  0  0  0  0
    2.8579   -1.6500    0.0000 C   0  0  0  0  0  0  0  0  0  0  0  0
    2.8579   -2.4750    0.0000 N   0  0  0  0  0  0  0  0  0  0  0  0
    2.1434   -2.8875    0.0000 C   0  0  0  0  0  0  0  0  0  0  0  0
    2.1434   -3.7125    0.0000 C   0  0  0  0  0  0  0  0  0  0  0  0
    1.4289   -4.1250    0.0000 C   0  0  0  0  0  0  0  0  0  0  0  0
    0.7145   -3.7125    0.0000 C   0  0  0  0  0  0  0  0  0  0  0  0
   -0.0000   -4.1250    0.0000 O   0  0  0  0  0  0  0  0  0  0  0  0
   -0.0000   -4.9500    0.0000 C   0  0  0  0  0  0  0  0  0  0  0  0
    0.7145   -5.3625    0.0000 C   0  0  0  0  0  0  0  0  0  0  0  0
    0.7145   -6.1875    0.0000 C   0  0  0  0  0  0  0  0  0  0  0  0
   -0.0000   -6.6000    0.0000 C   0  0  0  0  0  0  0  0  0  0  0  0
   -0.7145   -6.1875    0.0000 C   0  0  0  0  0  0  0  0  0  0  0  0
   -1.4289   -6.6000    0.0000 F   0  0  0  0  0  0  0  0  0  0  0  0
   -0.7145   -5.3625    0.0000 C   0  0  0  0  0  0  0  0  0  0  0  0
    0.7145   -2.8875    0.0000 C   0  0  0  0  0  0  0  0  0  0  0  0
    0.0000   -2.4750    0.0000 C   0  0  0  0  0  0  0  0  0  0  0  0
    1.4289   -2.4750    0.0000 C   0  0  0  0  0  0  0  0  0  0  0  0
    2.1434   -1.2375    0.0000 C   0  0  0  0  0  0  0  0  0  0  0  0
    1.4289   -1.6500    0.0000 C   0  0  0  0  0  0  0  0  0  0  0  0
  1  2  1  0  0  0  0
  2  3  1  0  0  0  0
  2  4  1  0  0  0  0
  4  5  1  0  0  0  0
  4  6  1  0  0  0  0
  6  7  3  0  0  0  0
  7  8  1  0  0  0  0
  8  9  4  0  0  0  0
  9 10  4  0  0  0  0
 10 11  4  0  0  0  0
 11 12  4  0  0  0  0
 12 13  4  0  0  0  0
 13 14  4  0  0  0  0
 14 15  4  0  0  0  0
 15 16  1  0  0  0  0
 16 17  1  0  0  0  0
 17 18  4  0  0  0  0
 18 19  4  0  0  0  0
 19 20  4  0  0  0  0
 20 21  1  0  0  0  0
 21 22  1  0  0  0  0
 22 23  4  0  0  0  0
 23 24  4  0  0  0  0
 24 25  4  0  0  0  0
 25 26  4  0  0  0  0
 26 27  1  0  0  0  0
 26 28  4  0  0  0  0
 22 28  4  0  0  0  0
 20 29  4  0  0  0  0
 29 30  1  0  0  0  0
 29 31  4  0  0  0  0
 17 31  4  0  0  0  0
 15 32  4  0  0  0  0
 11 32  4  0  0  0  0
 32 33  4  0  0  0  0
  8 33  4  0  0  0  0
M  END

> <ChembankId>
3653011

> <SMILES>
CC(N)C(O)C#Cc1ccc2ncnc(Nc3ccc(Oc4cccc(F)c4)c(C)c3)c2c1

> <InChI>


$$$$
3653012
  Marvin  11101114202D          

 33 36  0  0  0  0            999 V2000
   -6.7966    0.1117    0.0000 C   0  0  0  0  0  0  0  0  0  0  0  0
   -6.1291   -0.3732    0.0000 C   0  0  0  0  0  0  0  0  0  0  0  0
   -5.3754   -0.0376    0.0000 N   0  0  0  0  0  0  0  0  0  0  0  0
   -5.2039    0.7693    0.0000 C   0  0  0  0  0  0  0  0  0  0  0  0
   -5.7560    1.3824    0.0000 O   0  0  0  0  0  0  0  0  0  0  0  0
   -4.3834    0.8556    0.0000 N   0  0  0  0  0  0  0  0  0  0  0  0
   -3.9709    1.5700    0.0000 C   0  0  0  0  0  0  0  0  0  0  0  0
   -3.1459    1.5700    0.0000 C   0  0  0  0  0  0  0  0  0  0  0  0
   -4.0479    0.1019    0.0000 C   0  0  0  0  0  0  0  0  0  0  0  0
   -3.2633   -0.1530    0.0000 C   0  0  0  0  0  0  0  0  0  0  0  0
   -3.0917   -0.9600    0.0000 C   0  0  0  0  0  0  0  0  0  0  0  0
   -3.7048   -1.5120    0.0000 C   0  0  0  0  0  0  0  0  0  0  0  0
   -4.4894   -1.2571    0.0000 C   0  0  0  0  0  0  0  0  0  0  0  0
   -4.6610   -0.4501    0.0000 C   0  0  0  0  0  0  0  0  0  0  0  0
   -2.3071   -1.2150    0.0000 C   0  0  0  0  0  0  0  0  0  0  0  0
   -1.6397   -0.7300    0.0000 C   0  0  0  0  0  0  0  0  0  0  0  0
   -1.6397    0.0950    0.0000 N   0  0  0  0  0  0  0  0  0  0  0  0
   -0.9252    0.5075    0.0000 C   0  0  0  0  0  0  0  0  0  0  0  0
   -0.2107    0.0950    0.0000 C   0  0  0  0  0  0  0  0  0  0  0  0
    0.5037    0.5075    0.0000 C   0  0  0  0  0  0  0  0  0  0  0  0
    1.2182    0.0950    0.0000 N   0  0  0  0  0  0  0  0  0  0  0  0
    1.9327    0.5075    0.0000 C   0  0  0  0  0  0  0  0  0  0  0  0
    1.2182   -0.7300    0.0000 C   0  0  0  0  0  0  0  0  0  0  0  0
   -0.9722   -1.2150    0.0000 N   0  0  0  0  0  0  0  0  0  0  0  0
   -1.2272   -1.9996    0.0000 N   0  0  0  0  0  0  0  0  0  0  0  0
   -2.0522   -1.9996    0.0000 C   0  0  0  0  0  0  0  0  0  0  0  0
   -2.5371   -2.6670    0.0000 C   0  0  0  0  0  0  0  0  0  0  0  0
   -2.2015   -3.4207    0.0000 C   0  0  0  0  0  0  0  0  0  0  0  0
   -2.6865   -4.0881    0.0000 C   0  0  0  0  0  0  0  0  0  0  0  0
   -3.5069   -4.0019    0.0000 C   0  0  0  0  0  0  0  0  0  0  0  0
   -3.8425   -3.2482    0.0000 C   0  0  0  0  0  0  0  0  0  0  0  0
   -4.6630   -3.1620    0.0000 C   0  0  0  0  0  0  0  0  0  0  0  0
   -3.3576   -2.5808    0.0000 C   0  0  0  0  0  0  0  0  0  0  0  0
  1  2  1  0  0  0  0
  2  3  1  0  0  0  0
  3  4  4  0  0  0  0
  4  5  2  0  0  0  0
  4  6  4  0  0  0  0
  6  7  1  0  0  0  0
  7  8  1  0  0  0  0
  6  9  4  0  0  0  0
  9 10  4  0  0  0  0
 10 11  4  0  0  0  0
 11 12  4  0  0  0  0
 12 13  4  0  0  0  0
 13 14  4  0  0  0  0
  3 14  4  0  0  0  0
  9 14  4  0  0  0  0
 11 15  1  0  0  0  0
 15 16  4  0  0  0  0
 16 17  1  0  0  0  0
 17 18  1  0  0  0  0
 18 19  1  0  0  0  0
 19 20  1  0  0  0  0
 20 21  1  0  0  0  0
 21 22  1  0  0  0  0
 21 23  1  0  0  0  0
 16 24  4  0  0  0  0
 24 25  4  0  0  0  0
 25 26  4  0  0  0  0
 15 26  4  0  0  0  0
 26 27  1  0  0  0  0
 27 28  4  0  0  0  0
 28 29  4  0  0  0  0
 29 30  4  0  0  0  0
 30 31  4  0  0  0  0
 31 32  1  0  0  0  0
 31 33  4  0  0  0  0
 27 33  4  0  0  0  0
M  STY  1   1 DAT
M  SAL   1  1  25
M  SDT   1 MRV_IMPLICIT_H                                        
M  SDD   1     0.0000    0.0000    DR    ALL  0       0  
M  SED   1 IMPL_H1
M  END

> <ChembankId>
3653012

> <SMILES>
CCn1c(=O)n(CC)c2cc(ccc12)c3c(NCCCN(C)C)n[nH]c3c4cccc(C)c4

> <InChI>


$$$$
3653013
  Marvin  11101114202D          

 25 28  0  0  0  0            999 V2000
    0.0768   -2.3215    0.0000 C   0  0  0  0  0  0  0  0  0  0  0  0
    0.8838   -2.1500    0.0000 C   0  0  0  0  0  0  0  0  0  0  0  0
    1.4358   -2.7631    0.0000 C   0  0  0  0  0  0  0  0  0  0  0  0
    1.1387   -1.3654    0.0000 C   0  0  0  0  0  0  0  0  0  0  0  0
    0.6538   -0.6979    0.0000 N   0  0  0  0  0  0  0  0  0  0  0  0
    1.1387   -0.0305    0.0000 N   0  0  0  0  0  0  0  0  0  0  0  0
    1.9233   -0.2854    0.0000 C   0  0  0  0  0  0  0  0  0  0  0  0
    2.6378    0.1271    0.0000 C   0  0  0  0  0  0  0  0  0  0  0  0
    3.3523   -0.2854    0.0000 C   0  0  0  0  0  0  0  0  0  0  0  0
    3.3523   -1.1104    0.0000 C   0  0  0  0  0  0  0  0  0  0  0  0
    2.6378   -1.5229    0.0000 C   0  0  0  0  0  0  0  0  0  0  0  0
    1.9233   -1.1104    0.0000 N   0  0  0  0  0  0  0  0  0  0  0  0
    4.0668   -1.5229    0.0000 C   0  0  0  0  0  0  0  0  0  0  0  0
    4.1530   -2.3434    0.0000 O   0  0  0  0  0  0  0  0  0  0  0  0
    4.9600   -2.5150    0.0000 C   0  0  0  0  0  0  0  0  0  0  0  0
    5.3725   -1.8005    0.0000 N   0  0  0  0  0  0  0  0  0  0  0  0
    4.8204   -1.1874    0.0000 C   0  0  0  0  0  0  0  0  0  0  0  0
    4.9920   -0.3804    0.0000 C   0  0  0  0  0  0  0  0  0  0  0  0
    4.3789    0.1716    0.0000 C   0  0  0  0  0  0  0  0  0  0  0  0
    4.5504    0.9786    0.0000 C   0  0  0  0  0  0  0  0  0  0  0  0
    3.9373    1.5306    0.0000 F   0  0  0  0  0  0  0  0  0  0  0  0
    5.3350    1.2335    0.0000 C   0  0  0  0  0  0  0  0  0  0  0  0
    5.9481    0.6815    0.0000 C   0  0  0  0  0  0  0  0  0  0  0  0
    5.7766   -0.1255    0.0000 C   0  0  0  0  0  0  0  0  0  0  0  0
    6.3897   -0.6775    0.0000 F   0  0  0  0  0  0  0  0  0  0  0  0
  1  2  1  0  0  0  0
  2  3  1  0  0  0  0
  2  4  1  0  0  0  0
  4  5  4  0  0  0  0
  5  6  4  0  0  0  0
  6  7  4  0  0  0  0
  7  8  4  0  0  0  0
  8  9  4  0  0  0  0
  9 10  4  0  0  0  0
 10 11  4  0  0  0  0
 11 12  4  0  0  0  0
  4 12  4  0  0  0  0
  7 12  4  0  0  0  0
 10 13  1  0  0  0  0
 13 14  4  0  0  0  0
 14 15  4  0  0  0  0
 15 16  4  0  0  0  0
 16 17  4  0  0  0  0
 13 17  4  0  0  0  0
 17 18  1  0  0  0  0
 18 19  4  0  0  0  0
 19 20  4  0  0  0  0
 20 21  1  0  0  0  0
 20 22  4  0  0  0  0
 22 23  4  0  0  0  0
 23 24  4  0  0  0  0
 18 24  4  0  0  0  0
 24 25  1  0  0  0  0
M  END

> <ChembankId>
3653013

> <SMILES>
CC(C)c1nnc2ccc(cn12)c3ocnc3c4cc(F)ccc4F

> <InChI>


$$$$
3653014
  Marvin  11101114202D          

 27 30  0  0  0  0            999 V2000
    0.6288   -2.9346    0.0000 C   0  0  0  0  0  0  0  0  0  0  0  0
    0.8838   -2.1500    0.0000 C   0  0  0  0  0  0  0  0  0  0  0  0
    1.6684   -2.4049    0.0000 C   0  0  0  0  0  0  0  0  0  0  0  0
    0.0992   -1.8951    0.0000 C   0  0  0  0  0  0  0  0  0  0  0  0
    1.1387   -1.3654    0.0000 C   0  0  0  0  0  0  0  0  0  0  0  0
    0.6538   -0.6979    0.0000 N   0  0  0  0  0  0  0  0  0  0  0  0
    1.1387   -0.0305    0.0000 N   0  0  0  0  0  0  0  0  0  0  0  0
    1.9233   -0.2854    0.0000 C   0  0  0  0  0  0  0  0  0  0  0  0
    2.6378    0.1271    0.0000 C   0  0  0  0  0  0  0  0  0  0  0  0
    3.3523   -0.2854    0.0000 C   0  0  0  0  0  0  0  0  0  0  0  0
    3.3523   -1.1104    0.0000 C   0  0  0  0  0  0  0  0  0  0  0  0
    2.6378   -1.5229    0.0000 C   0  0  0  0  0  0  0  0  0  0  0  0
    1.9233   -1.1104    0.0000 N   0  0  0  0  0  0  0  0  0  0  0  0
    4.0668   -1.5229    0.0000 C   0  0  0  0  0  0  0  0  0  0  0  0
    4.8204   -1.1874    0.0000 O   0  0  0  0  0  0  0  0  0  0  0  0
    5.3725   -1.8005    0.0000 C   0  0  0  0  0  0  0  0  0  0  0  0
    4.9600   -2.5150    0.0000 N   0  0  0  0  0  0  0  0  0  0  0  0
    4.1530   -2.3434    0.0000 C   0  0  0  0  0  0  0  0  0  0  0  0
    3.5399   -2.8955    0.0000 C   0  0  0  0  0  0  0  0  0  0  0  0
    2.7553   -2.6405    0.0000 C   0  0  0  0  0  0  0  0  0  0  0  0
    2.1422   -3.1925    0.0000 C   0  0  0  0  0  0  0  0  0  0  0  0
    1.3576   -2.9376    0.0000 F   0  0  0  0  0  0  0  0  0  0  0  0
    2.3137   -3.9995    0.0000 C   0  0  0  0  0  0  0  0  0  0  0  0
    1.7006   -4.5516    0.0000 F   0  0  0  0  0  0  0  0  0  0  0  0
    3.0983   -4.2545    0.0000 C   0  0  0  0  0  0  0  0  0  0  0  0
    3.7114   -3.7024    0.0000 C   0  0  0  0  0  0  0  0  0  0  0  0
    4.4960   -3.9574    0.0000 F   0  0  0  0  0  0  0  0  0  0  0  0
  1  2  1  0  0  0  0
  2  3  1  0  0  0  0
  2  4  1  0  0  0  0
  2  5  1  0  0  0  0
  5  6  4  0  0  0  0
  6  7  4  0  0  0  0
  7  8  4  0  0  0  0
  8  9  4  0  0  0  0
  9 10  4  0  0  0  0
 10 11  4  0  0  0  0
 11 12  4  0  0  0  0
 12 13  4  0  0  0  0
  5 13  4  0  0  0  0
  8 13  4  0  0  0  0
 11 14  1  0  0  0  0
 14 15  4  0  0  0  0
 15 16  4  0  0  0  0
 16 17  4  0  0  0  0
 17 18  4  0  0  0  0
 14 18  4  0  0  0  0
 18 19  1  0  0  0  0
 19 20  4  0  0  0  0
 20 21  4  0  0  0  0
 21 22  1  0  0  0  0
 21 23  4  0  0  0  0
 23 24  1  0  0  0  0
 23 25  4  0  0  0  0
 25 26  4  0  0  0  0
 19 26  4  0  0  0  0
 26 27  1  0  0  0  0
M  END

> <ChembankId>
3653014

> <SMILES>
CC(C)(C)c1nnc2ccc(cn12)c3ocnc3c4cc(F)c(F)cc4F

> <InChI>


$$$$
3653015
  Marvin  11101114202D          

 43 48  0  0  0  0            999 V2000
   -2.0044   -1.8464    0.0000 C   0  0  0  0  0  0  0  0  0  0  0  0
   -1.2508   -2.1820    0.0000 C   0  0  0  0  0  0  0  0  0  0  0  0
   -0.5363   -1.7695    0.0000 N   0  0  0  0  0  0  0  0  0  0  0  0
    0.0768   -2.3215    0.0000 C   0  0  0  0  0  0  0  0  0  0  0  0
    0.8838   -2.1500    0.0000 C   0  0  0  0  0  0  0  0  0  0  0  0
    1.1387   -1.3654    0.0000 C   0  0  0  0  0  0  0  0  0  0  0  0
    0.6538   -0.6979    0.0000 C   0  0  0  0  0  0  0  0  0  0  0  0
   -0.1712   -0.6979    0.0000 O   0  0  0  0  0  0  0  0  0  0  0  0
    1.1387   -0.0305    0.0000 N   0  0  0  0  0  0  0  0  0  0  0  0
    1.9233   -0.2854    0.0000 C   0  0  0  0  0  0  0  0  0  0  0  0
    2.6378    0.1271    0.0000 C   0  0  0  0  0  0  0  0  0  0  0  0
    3.3523   -0.2854    0.0000 C   0  0  0  0  0  0  0  0  0  0  0  0
    3.3523   -1.1104    0.0000 C   0  0  0  0  0  0  0  0  0  0  0  0
    2.6378   -1.5229    0.0000 C   0  0  0  0  0  0  0  0  0  0  0  0
    1.9233   -1.1104    0.0000 C   0  0  0  0  0  0  0  0  0  0  0  0
    4.0668   -1.5229    0.0000 S   0  0  0  0  0  0  0  0  0  0  0  0
    4.4793   -0.8085    0.0000 O   0  0  0  0  0  0  0  0  0  0  0  0
    3.6543   -2.2374    0.0000 O   0  0  0  0  0  0  0  0  0  0  0  0
    4.7812   -1.9354    0.0000 C   0  0  0  0  0  0  0  0  0  0  0  0
    5.4957   -1.5229    0.0000 C   0  0  0  0  0  0  0  0  0  0  0  0
    5.4957   -0.6979    0.0000 C   0  0  0  0  0  0  0  0  0  0  0  0
    4.7812   -0.2854    0.0000 Cl  0  0  0  0  0  0  0  0  0  0  0  0
    6.2102   -0.2854    0.0000 C   0  0  0  0  0  0  0  0  0  0  0  0
    6.9246   -0.6979    0.0000 C   0  0  0  0  0  0  0  0  0  0  0  0
    6.9246   -1.5229    0.0000 C   0  0  0  0  0  0  0  0  0  0  0  0
    6.2102   -1.9354    0.0000 C   0  0  0  0  0  0  0  0  0  0  0  0
    6.2102   -2.7604    0.0000 Cl  0  0  0  0  0  0  0  0  0  0  0  0
   -0.2587   -3.0752    0.0000 C   0  0  0  0  0  0  0  0  0  0  0  0
    0.1538   -3.7897    0.0000 C   0  0  0  0  0  0  0  0  0  0  0  0
   -1.0792   -2.9890    0.0000 C   0  0  0  0  0  0  0  0  0  0  0  0
   -1.6313   -3.6021    0.0000 C   0  0  0  0  0  0  0  0  0  0  0  0
   -2.4382   -3.4305    0.0000 O   0  0  0  0  0  0  0  0  0  0  0  0
   -1.3763   -4.3867    0.0000 N   0  0  0  0  0  0  0  0  0  0  0  0
   -0.5917   -4.6416    0.0000 C   0  0  0  0  0  0  0  0  0  0  0  0
   -0.5917   -5.4666    0.0000 C   0  0  0  0  0  0  0  0  0  0  0  0
   -1.3763   -5.7216    0.0000 C   0  0  0  0  0  0  0  0  0  0  0  0
   -1.8612   -5.0541    0.0000 C   0  0  0  0  0  0  0  0  0  0  0  0
   -2.6862   -5.0541    0.0000 C   0  0  0  0  0  0  0  0  0  0  0  0
   -3.0987   -4.3397    0.0000 N   0  0  0  0  0  0  0  0  0  0  0  0
   -3.9192   -4.2534    0.0000 C   0  0  0  0  0  0  0  0  0  0  0  0
   -4.0908   -3.4464    0.0000 C   0  0  0  0  0  0  0  0  0  0  0  0
   -3.3763   -3.0339    0.0000 C   0  0  0  0  0  0  0  0  0  0  0  0
   -2.7632   -3.5860    0.0000 C   0  0  0  0  0  0  0  0  0  0  0  0
  1  2  1  0  0  0  0
  2  3  4  0  0  0  0
  3  4  4  0  0  0  0
  5  4  1  4  0  0  0
  5  6  2  0  0  0  0
  6  7  1  0  0  0  0
  7  8  2  0  0  0  0
  7  9  1  0  0  0  0
  9 10  1  0  0  0  0
 10 11  4  0  0  0  0
 11 12  4  0  0  0  0
 12 13  4  0  0  0  0
 13 14  4  0  0  0  0
 14 15  4  0  0  0  0
  6 15  1  0  0  0  0
 10 15  4  0  0  0  0
 13 16  1  0  0  0  0
 16 17  2  0  0  0  0
 16 18  2  0  0  0  0
 16 19  1  0  0  0  0
 19 20  1  0  0  0  0
 20 21  4  0  0  0  0
 21 22  1  0  0  0  0
 21 23  4  0  0  0  0
 23 24  4  0  0  0  0
 24 25  4  0  0  0  0
 25 26  4  0  0  0  0
 20 26  4  0  0  0  0
 26 27  1  0  0  0  0
  4 28  4  0  0  0  0
 28 29  1  0  0  0  0
 28 30  4  0  0  0  0
  2 30  4  0  0  0  0
 30 31  1  0  0  0  0
 31 32  2  0  0  0  0
 31 33  1  0  0  0  0
 33 34  1  0  0  0  0
 34 35  1  0  0  0  0
 35 36  1  0  0  0  0
 36 37  1  0  0  0  0
 33 37  1  0  0  0  0
 37 38  1  0  0  0  0
 38 39  1  0  0  0  0
 39 40  1  0  0  0  0
 40 41  1  0  0  0  0
 41 42  1  0  0  0  0
 42 43  1  0  0  0  0
 39 43  1  0  0  0  0
M  STY  1   1 DAT
M  SAL   1  1   3
M  SDT   1 MRV_IMPLICIT_H                                        
M  SDD   1     0.0000    0.0000    DR    ALL  0       0  
M  SED   1 IMPL_H1
M  END

> <ChembankId>
3653015

> <SMILES>
Cc1[nH]c(C=C2C(=O)Nc3ccc(cc23)S(=O)(=O)Cc4c(Cl)cccc4Cl)c(C)c1C(=O)N5CCCC5CN6CCCC6

> <InChI>


$$$$
3653016
  Marvin  11101114202D          

 38 42  0  0  0  0            999 V2000
   -1.5356    6.5384    0.0000 F   0  0  0  0  0  0  0  0  0  0  0  0
   -1.5356    5.7134    0.0000 C   0  0  0  0  0  0  0  0  0  0  0  0
   -2.3606    5.7134    0.0000 F   0  0  0  0  0  0  0  0  0  0  0  0
   -0.7106    5.7134    0.0000 F   0  0  0  0  0  0  0  0  0  0  0  0
   -1.5356    4.8884    0.0000 C   0  0  0  0  0  0  0  0  0  0  0  0
   -0.8212    4.4759    0.0000 C   0  0  0  0  0  0  0  0  0  0  0  0
   -0.8212    3.6509    0.0000 C   0  0  0  0  0  0  0  0  0  0  0  0
   -0.1067    3.2384    0.0000 N   0  0  0  0  0  0  0  0  0  0  0  0
   -0.1067    2.4134    0.0000 C   0  0  0  0  0  0  0  0  0  0  0  0
   -0.8212    2.0009    0.0000 O   0  0  0  0  0  0  0  0  0  0  0  0
    0.6078    2.0009    0.0000 C   0  0  0  0  0  0  0  0  0  0  0  0
    1.3222    2.4134    0.0000 C   0  0  0  0  0  0  0  0  0  0  0  0
    2.0367    2.0009    0.0000 C   0  0  0  0  0  0  0  0  0  0  0  0
    2.0367    1.1759    0.0000 C   0  0  0  0  0  0  0  0  0  0  0  0
    1.3222    0.7634    0.0000 C   0  0  0  0  0  0  0  0  0  0  0  0
    1.3222   -0.0616    0.0000 C   0  0  0  0  0  0  0  0  0  0  0  0
    2.0367   -0.4741    0.0000 C   0  0  0  0  0  0  0  0  0  0  0  0
    2.0367   -1.2991    0.0000 C   0  0  0  0  0  0  0  0  0  0  0  0
    2.7041   -1.7840    0.0000 C   0  0  0  0  0  0  0  0  0  0  0  0
    2.4492   -2.5687    0.0000 C   0  0  0  0  0  0  0  0  0  0  0  0
    2.9341   -3.2361    0.0000 N   0  0  0  0  0  0  0  0  0  0  0  0
    2.5986   -3.9898    0.0000 C   0  0  0  0  0  0  0  0  0  0  0  0
    3.0835   -4.6572    0.0000 C   0  0  0  0  0  0  0  0  0  0  0  0
    2.7479   -5.4109    0.0000 C   0  0  0  0  0  0  0  0  0  0  0  0
    1.9275   -5.4971    0.0000 C   0  0  0  0  0  0  0  0  0  0  0  0
    1.4425   -4.8297    0.0000 N   0  0  0  0  0  0  0  0  0  0  0  0
    1.7781   -4.0760    0.0000 C   0  0  0  0  0  0  0  0  0  0  0  0
    1.6242   -2.5687    0.0000 N   0  0  0  0  0  0  0  0  0  0  0  0
    1.3693   -1.7840    0.0000 N   0  0  0  0  0  0  0  0  0  0  0  0
    0.6078    1.1759    0.0000 C   0  0  0  0  0  0  0  0  0  0  0  0
   -1.5356    3.2384    0.0000 C   0  0  0  0  0  0  0  0  0  0  0  0
   -2.2501    3.6509    0.0000 C   0  0  0  0  0  0  0  0  0  0  0  0
   -2.2501    4.4759    0.0000 C   0  0  0  0  0  0  0  0  0  0  0  0
   -2.9646    4.8884    0.0000 N   0  0  0  0  0  0  0  0  0  0  0  0
   -3.7183    4.5528    0.0000 C   0  0  0  0  0  0  0  0  0  0  0  0
   -4.2703    5.1659    0.0000 C   0  0  0  0  0  0  0  0  0  0  0  0
   -3.8578    5.8804    0.0000 C   0  0  0  0  0  0  0  0  0  0  0  0
   -3.0508    5.7089    0.0000 C   0  0  0  0  0  0  0  0  0  0  0  0
  1  2  1  0  0  0  0
  2  3  1  0  0  0  0
  2  4  1  0  0  0  0
  2  5  1  0  0  0  0
  5  6  4  0  0  0  0
  6  7  4  0  0  0  0
  7  8  1  0  0  0  0
  8  9  1  0  0  0  0
  9 10  2  0  0  0  0
  9 11  1  0  0  0  0
 11 12  4  0  0  0  0
 12 13  4  0  0  0  0
 13 14  4  0  0  0  0
 14 15  4  0  0  0  0
 15 16  1  0  0  0  0
 16 17  1  0  0  0  0
 17 18  1  0  0  0  0
 18 19  4  0  0  0  0
 19 20  4  0  0  0  0
 20 21  1  0  0  0  0
 21 22  1  0  0  0  0
 22 23  4  0  0  0  0
 23 24  4  0  0  0  0
 24 25  4  0  0  0  0
 25 26  4  0  0  0  0
 26 27  4  0  0  0  0
 22 27  4  0  0  0  0
 20 28  4  0  0  0  0
 28 29  4  0  0  0  0
 18 29  4  0  0  0  0
 15 30  4  0  0  0  0
 11 30  4  0  0  0  0
  7 31  4  0  0  0  0
 31 32  4  0  0  0  0
 32 33  4  0  0  0  0
  5 33  4  0  0  0  0
 33 34  1  0  0  0  0
 34 35  1  0  0  0  0
 35 36  1  0  0  0  0
 36 37  1  0  0  0  0
 37 38  1  0  0  0  0
 34 38  1  0  0  0  0
M  STY  1   1 DAT
M  SAL   1  1  29
M  SDT   1 MRV_IMPLICIT_H                                        
M  SDD   1     0.0000    0.0000    DR    ALL  0       0  
M  SED   1 IMPL_H1
M  END

> <ChembankId>
3653016

> <SMILES>
FC(F)(F)c1cc(NC(=O)c2cccc(CCc3cc(Nc4cccnc4)n[nH]3)c2)ccc1N5CCCC5

> <InChI>


$$$$
3653017
  Marvin  11101114202D          

 28 31  0  0  0  0            999 V2000
   -1.4257   -7.8243    0.0000 N   0  0  0  0  0  0  0  0  0  0  0  0
   -1.7613   -7.0706    0.0000 C   0  0  0  0  0  0  0  0  0  0  0  0
   -1.2763   -6.4032    0.0000 C   0  0  0  0  0  0  0  0  0  0  0  0
   -1.6119   -5.6495    0.0000 C   0  0  0  0  0  0  0  0  0  0  0  0
   -1.1270   -4.9820    0.0000 N   0  0  0  0  0  0  0  0  0  0  0  0
   -1.3819   -4.1974    0.0000 N   0  0  0  0  0  0  0  0  0  0  0  0
   -0.7145   -3.7125    0.0000 C   0  0  0  0  0  0  0  0  0  0  0  0
   -0.0470   -4.1974    0.0000 C   0  0  0  0  0  0  0  0  0  0  0  0
   -0.3020   -4.9820    0.0000 C   0  0  0  0  0  0  0  0  0  0  0  0
    0.1830   -5.6495    0.0000 C   0  0  0  0  0  0  0  0  0  0  0  0
   -0.1526   -6.4032    0.0000 O   0  0  0  0  0  0  0  0  0  0  0  0
    1.0034   -5.5632    0.0000 O   0  0  0  0  0  0  0  0  0  0  0  0
   -0.7145   -2.8875    0.0000 C   0  0  0  0  0  0  0  0  0  0  0  0
   -1.4289   -2.4750    0.0000 C   0  0  0  0  0  0  0  0  0  0  0  0
   -1.4289   -1.6500    0.0000 C   0  0  0  0  0  0  0  0  0  0  0  0
   -0.7145   -1.2375    0.0000 N   0  0  0  0  0  0  0  0  0  0  0  0
    0.0000   -1.6500    0.0000 C   0  0  0  0  0  0  0  0  0  0  0  0
    0.0000   -2.4750    0.0000 C   0  0  0  0  0  0  0  0  0  0  0  0
    0.7145   -1.2375    0.0000 C   0  0  0  0  0  0  0  0  0  0  0  0
    0.7145   -0.4125    0.0000 C   0  0  0  0  0  0  0  0  0  0  0  0
    1.4289    0.0000    0.0000 N   0  0  0  0  0  0  0  0  0  0  0  0
    2.1434   -0.4125    0.0000 C   0  0  0  0  0  0  0  0  0  0  0  0
    2.8579    0.0000    0.0000 C   0  0  0  0  0  0  0  0  0  0  0  0
    3.5724   -0.4125    0.0000 C   0  0  0  0  0  0  0  0  0  0  0  0
    3.5724   -1.2375    0.0000 C   0  0  0  0  0  0  0  0  0  0  0  0
    2.8579   -1.6500    0.0000 C   0  0  0  0  0  0  0  0  0  0  0  0
    2.1434   -1.2375    0.0000 C   0  0  0  0  0  0  0  0  0  0  0  0
    1.4289   -1.6500    0.0000 C   0  0  0  0  0  0  0  0  0  0  0  0
  1  2  1  0  0  0  0
  2  3  1  0  0  0  0
  3  4  1  0  0  0  0
  4  5  1  0  0  0  0
  5  6  4  0  0  0  0
  6  7  4  0  0  0  0
  7  8  4  0  0  0  0
  8  9  4  0  0  0  0
  5  9  4  0  0  0  0
  9 10  1  0  0  0  0
 10 11  2  0  0  0  0
 10 12  1  0  0  0  0
  7 13  1  0  0  0  0
 13 14  4  0  0  0  0
 14 15  4  0  0  0  0
 15 16  4  0  0  0  0
 16 17  4  0  0  0  0
 17 18  4  0  0  0  0
 13 18  4  0  0  0  0
 17 19  1  0  0  0  0
 19 20  4  0  0  0  0
 20 21  4  0  0  0  0
 21 22  4  0  0  0  0
 22 23  4  0  0  0  0
 23 24  4  0  0  0  0
 24 25  4  0  0  0  0
 25 26  4  0  0  0  0
 26 27  4  0  0  0  0
 22 27  4  0  0  0  0
 27 28  4  0  0  0  0
 19 28  4  0  0  0  0
M  END

> <ChembankId>
3653017

> <SMILES>
NCCCn1nc(cc1C(=O)O)c2ccnc(c2)c3cnc4ccccc4c3

> <InChI>


$$$$
3653018
  Marvin  11101114202D          

 25 27  0  0  0  0            999 V2000
   -2.8579   -4.9500    0.0000 F   0  0  0  0  0  0  0  0  0  0  0  0
   -2.1434   -4.5375    0.0000 C   0  0  0  0  0  0  0  0  0  0  0  0
   -1.4289   -4.9500    0.0000 C   0  0  0  0  0  0  0  0  0  0  0  0
   -0.7145   -4.5375    0.0000 C   0  0  0  0  0  0  0  0  0  0  0  0
   -0.7145   -3.7125    0.0000 C   0  0  0  0  0  0  0  0  0  0  0  0
    0.0000   -3.3000    0.0000 C   0  0  0  0  0  0  0  0  0  0  0  0
    0.0000   -2.4750    0.0000 O   0  0  0  0  0  0  0  0  0  0  0  0
    0.7145   -3.7125    0.0000 N   0  0  0  0  0  0  0  0  0  0  0  0
    1.4289   -3.3000    0.0000 O   0  0  0  0  0  0  0  0  0  0  0  0
    2.1434   -3.7125    0.0000 C   0  0  0  0  0  0  0  0  0  0  0  0
    2.8579   -3.3000    0.0000 C   0  0  0  0  0  0  0  0  0  0  0  0
    3.2704   -2.5855    0.0000 C   0  0  0  0  0  0  0  0  0  0  0  0
    3.6829   -3.3000    0.0000 C   0  0  0  0  0  0  0  0  0  0  0  0
   -1.4289   -3.3000    0.0000 C   0  0  0  0  0  0  0  0  0  0  0  0
   -1.4289   -2.4750    0.0000 N   0  0  0  0  0  0  0  0  0  0  0  0
   -2.1434   -2.0625    0.0000 C   0  0  0  0  0  0  0  0  0  0  0  0
   -2.8579   -2.4750    0.0000 C   0  0  0  0  0  0  0  0  0  0  0  0
   -3.5724   -2.0625    0.0000 C   0  0  0  0  0  0  0  0  0  0  0  0
   -3.5724   -1.2375    0.0000 C   0  0  0  0  0  0  0  0  0  0  0  0
   -4.2868   -0.8250    0.0000 I   0  0  0  0  0  0  0  0  0  0  0  0
   -2.8579   -0.8250    0.0000 C   0  0  0  0  0  0  0  0  0  0  0  0
   -2.1434   -1.2375    0.0000 C   0  0  0  0  0  0  0  0  0  0  0  0
   -1.4289   -0.8250    0.0000 Cl  0  0  0  0  0  0  0  0  0  0  0  0
   -2.1434   -3.7125    0.0000 C   0  0  0  0  0  0  0  0  0  0  0  0
   -2.8579   -3.3000    0.0000 F   0  0  0  0  0  0  0  0  0  0  0  0
  1  2  1  0  0  0  0
  2  3  4  0  0  0  0
  3  4  4  0  0  0  0
  4  5  4  0  0  0  0
  5  6  1  0  0  0  0
  6  7  2  0  0  0  0
  6  8  1  0  0  0  0
  8  9  1  0  0  0  0
  9 10  1  0  0  0  0
 10 11  1  0  0  0  0
 11 12  1  0  0  0  0
 12 13  1  0  0  0  0
 11 13  1  0  0  0  0
  5 14  4  0  0  0  0
 14 15  1  0  0  0  0
 15 16  1  0  0  0  0
 16 17  4  0  0  0  0
 17 18  4  0  0  0  0
 18 19  4  0  0  0  0
 19 20  1  0  0  0  0
 19 21  4  0  0  0  0
 21 22  4  0  0  0  0
 16 22  4  0  0  0  0
 22 23  1  0  0  0  0
 14 24  4  0  0  0  0
  2 24  4  0  0  0  0
 24 25  1  0  0  0  0
M  END

> <ChembankId>
3653018

> <SMILES>
Fc1ccc(C(=O)NOCC2CC2)c(Nc3ccc(I)cc3Cl)c1F

> <InChI>


$$$$
3653019
  Marvin  11101114202D          

 31 34  0  0  0  0            999 V2000
    1.4045  -10.1813    0.0000 C   0  0  0  0  0  0  0  0  0  0  0  0
    2.1190  -10.5938    0.0000 C   0  0  0  0  0  0  0  0  0  0  0  0
    2.8334  -10.1813    0.0000 N   0  0  0  0  0  0  0  0  0  0  0  0
    3.5479  -10.5938    0.0000 C   0  0  0  0  0  0  0  0  0  0  0  0
    3.5479  -11.4188    0.0000 O   0  0  0  0  0  0  0  0  0  0  0  0
    4.2624  -10.1813    0.0000 C   0  0  0  0  0  0  0  0  0  0  0  0
    4.9769  -10.5938    0.0000 C   0  0  0  0  0  0  0  0  0  0  0  0
    5.6913  -10.1813    0.0000 C   0  0  0  0  0  0  0  0  0  0  0  0
    6.4058  -10.5938    0.0000 O   0  0  0  0  0  0  0  0  0  0  0  0
    7.1203  -10.1813    0.0000 C   0  0  0  0  0  0  0  0  0  0  0  0
    7.1203   -9.3563    0.0000 C   0  0  0  0  0  0  0  0  0  0  0  0
    7.8347   -8.9438    0.0000 C   0  0  0  0  0  0  0  0  0  0  0  0
    8.5492   -9.3563    0.0000 C   0  0  0  0  0  0  0  0  0  0  0  0
    8.5492  -10.1813    0.0000 C   0  0  0  0  0  0  0  0  0  0  0  0
    7.8347  -10.5938    0.0000 C   0  0  0  0  0  0  0  0  0  0  0  0
    9.2637  -10.5938    0.0000 C   0  0  0  0  0  0  0  0  0  0  0  0
    9.9782  -10.1813    0.0000 C   0  0  0  0  0  0  0  0  0  0  0  0
   10.6926  -10.5938    0.0000 C   0  0  0  0  0  0  0  0  0  0  0  0
   10.6926  -11.4188    0.0000 C   0  0  0  0  0  0  0  0  0  0  0  0
    9.9782  -11.8313    0.0000 C   0  0  0  0  0  0  0  0  0  0  0  0
    9.2637  -11.4188    0.0000 N   0  0  0  0  0  0  0  0  0  0  0  0
   11.4071  -10.1813    0.0000 C   0  0  0  0  0  0  0  0  0  0  0  0
   11.4933   -9.3608    0.0000 C   0  0  0  0  0  0  0  0  0  0  0  0
   12.3003   -9.1893    0.0000 C   0  0  0  0  0  0  0  0  0  0  0  0
   12.7128   -8.4749    0.0000 C   0  0  0  0  0  0  0  0  0  0  0  0
   12.3003   -7.7604    0.0000 O   0  0  0  0  0  0  0  0  0  0  0  0
   13.5378   -8.4749    0.0000 N   0  0  0  0  0  0  0  0  0  0  0  0
   13.9503   -9.1893    0.0000 C   0  0  0  0  0  0  0  0  0  0  0  0
   13.5378   -9.9038    0.0000 C   0  0  0  0  0  0  0  0  0  0  0  0
   12.7128   -9.9038    0.0000 C   0  0  0  0  0  0  0  0  0  0  0  0
   12.1608  -10.5169    0.0000 N   0  0  0  0  0  0  0  0  0  0  0  0
  1  2  1  0  0  0  0
  2  3  1  0  0  0  0
  3  4  1  0  0  0  0
  4  5  2  0  0  0  0
  4  6  1  0  0  0  0
  6  7  1  0  0  0  0
  7  8  1  0  0  0  0
  8  9  1  0  0  0  0
  9 10  1  0  0  0  0
 10 11  4  0  0  0  0
 11 12  4  0  0  0  0
 12 13  4  0  0  0  0
 13 14  4  0  0  0  0
 14 15  4  0  0  0  0
 10 15  4  0  0  0  0
 14 16  1  0  0  0  0
 16 17  4  0  0  0  0
 17 18  4  0  0  0  0
 18 19  4  0  0  0  0
 19 20  4  0  0  0  0
 20 21  4  0  0  0  0
 16 21  4  0  0  0  0
 18 22  1  0  0  0  0
 22 23  4  0  0  0  0
 23 24  4  0  0  0  0
 24 25  1  0  0  0  0
 25 26  2  0  0  0  0
 25 27  1  0  0  0  0
 27 28  1  0  0  0  0
 28 29  1  0  0  0  0
 29 30  1  0  0  0  0
 24 30  4  0  0  0  0
 30 31  4  0  0  0  0
 22 31  4  0  0  0  0
M  STY  1   1 DAT
M  SAL   1  1  31
M  SDT   1 MRV_IMPLICIT_H                                        
M  SDD   1     0.0000    0.0000    DR    ALL  0       0  
M  SED   1 IMPL_H1
M  END

> <ChembankId>
3653019

> <SMILES>
CCNC(=O)CCCOc1cccc(c1)c2cc(ccn2)c3cc4C(=O)NCCc4[nH]3

> <InChI>


$$$$
3653020
  Marvin  11101114202D          

 27 31  0  0  0  0            999 V2000
   -0.6787    1.6562    0.0000 O   0  0  0  0  0  0  0  0  0  0  0  0
   -1.4856    1.4847    0.0000 C   0  0  0  0  0  0  0  0  0  0  0  0
   -1.8212    0.7310    0.0000 N   0  0  0  0  0  0  0  0  0  0  0  0
   -2.6417    0.8172    0.0000 C   0  0  0  0  0  0  0  0  0  0  0  0
   -3.1937    0.2041    0.0000 O   0  0  0  0  0  0  0  0  0  0  0  0
   -2.8132    1.6242    0.0000 C   0  0  0  0  0  0  0  0  0  0  0  0
   -3.5277    2.0367    0.0000 C   0  0  0  0  0  0  0  0  0  0  0  0
   -3.5277    2.8617    0.0000 C   0  0  0  0  0  0  0  0  0  0  0  0
   -2.8132    3.2742    0.0000 C   0  0  0  0  0  0  0  0  0  0  0  0
   -2.0987    2.8617    0.0000 C   0  0  0  0  0  0  0  0  0  0  0  0
   -2.0987    2.0367    0.0000 C   0  0  0  0  0  0  0  0  0  0  0  0
   -1.4087    0.0165    0.0000 C   0  0  0  0  0  0  0  0  0  0  0  0
   -0.5837    0.0165    0.0000 C   0  0  0  0  0  0  0  0  0  0  0  0
   -0.1712   -0.6979    0.0000 C   0  0  0  0  0  0  0  0  0  0  0  0
   -0.5837   -1.4124    0.0000 C   0  0  0  0  0  0  0  0  0  0  0  0
   -1.4087   -1.4124    0.0000 C   0  0  0  0  0  0  0  0  0  0  0  0
   -1.8212   -0.6979    0.0000 N   0  0  0  0  0  0  0  0  0  0  0  0
    0.6538   -0.6979    0.0000 C   0  0  0  0  0  0  0  0  0  0  0  0
    1.1387   -0.0305    0.0000 C   0  0  0  0  0  0  0  0  0  0  0  0
    1.9233   -0.2854    0.0000 C   0  0  0  0  0  0  0  0  0  0  0  0
    2.6378    0.1271    0.0000 C   0  0  0  0  0  0  0  0  0  0  0  0
    2.6378    0.9521    0.0000 O   0  0  0  0  0  0  0  0  0  0  0  0
    3.3523   -0.2854    0.0000 N   0  0  0  0  0  0  0  0  0  0  0  0
    3.3523   -1.1104    0.0000 C   0  0  0  0  0  0  0  0  0  0  0  0
    2.6378   -1.5229    0.0000 C   0  0  0  0  0  0  0  0  0  0  0  0
    1.9233   -1.1104    0.0000 C   0  0  0  0  0  0  0  0  0  0  0  0
    1.1387   -1.3654    0.0000 N   0  0  0  0  0  0  0  0  0  0  0  0
  1  2  2  0  0  0  0
  2  3  1  0  0  0  0
  3  4  1  0  0  0  0
  4  5  2  0  0  0  0
  4  6  1  0  0  0  0
  6  7  4  0  0  0  0
  7  8  4  0  0  0  0
  8  9  4  0  0  0  0
  9 10  4  0  0  0  0
 10 11  4  0  0  0  0
  2 11  1  0  0  0  0
  6 11  4  0  0  0  0
  3 12  1  0  0  0  0
 12 13  4  0  0  0  0
 13 14  4  0  0  0  0
 14 15  4  0  0  0  0
 15 16  4  0  0  0  0
 16 17  4  0  0  0  0
 12 17  4  0  0  0  0
 14 18  1  0  0  0  0
 18 19  4  0  0  0  0
 19 20  4  0  0  0  0
 20 21  1  0  0  0  0
 21 22  2  0  0  0  0
 21 23  1  0  0  0  0
 23 24  1  0  0  0  0
 24 25  1  0  0  0  0
 25 26  1  0  0  0  0
 20 26  4  0  0  0  0
 26 27  4  0  0  0  0
 18 27  4  0  0  0  0
M  STY  1   1 DAT
M  SAL   1  1  27
M  SDT   1 MRV_IMPLICIT_H                                        
M  SDD   1     0.0000    0.0000    DR    ALL  0       0  
M  SED   1 IMPL_H1
M  END

> <ChembankId>
3653020

> <SMILES>
O=C1N(C(=O)c2ccccc12)c3cc(ccn3)c4cc5C(=O)NCCc5[nH]4

> <InChI>


$$$$
3653021
  Marvin  11101114202D          

 19 20  0  0  0  0            999 V2000
    3.4656   -1.2991    0.0000 C   0  0  0  0  0  0  0  0  0  0  0  0
    2.7512   -1.7116    0.0000 C   0  0  0  0  0  0  0  0  0  0  0  0
    2.0367   -1.2991    0.0000 C   0  0  0  0  0  0  0  0  0  0  0  0
    2.7512   -2.5366    0.0000 C   0  0  0  0  0  0  0  0  0  0  0  0
    3.4186   -3.0215    0.0000 C   0  0  0  0  0  0  0  0  0  0  0  0
    3.1637   -3.8062    0.0000 N   0  0  0  0  0  0  0  0  0  0  0  0
    2.3387   -3.8062    0.0000 C   0  0  0  0  0  0  0  0  0  0  0  0
    1.8538   -4.4736    0.0000 N   0  0  0  0  0  0  0  0  0  0  0  0
    1.0333   -4.3874    0.0000 C   0  0  0  0  0  0  0  0  0  0  0  0
    0.6977   -3.6337    0.0000 O   0  0  0  0  0  0  0  0  0  0  0  0
    0.5484   -5.0548    0.0000 N   0  0  0  0  0  0  0  0  0  0  0  0
   -0.2721   -4.9686    0.0000 C   0  0  0  0  0  0  0  0  0  0  0  0
   -0.7571   -5.6360    0.0000 C   0  0  0  0  0  0  0  0  0  0  0  0
   -1.5775   -5.5498    0.0000 C   0  0  0  0  0  0  0  0  0  0  0  0
   -1.9131   -4.7961    0.0000 C   0  0  0  0  0  0  0  0  0  0  0  0
   -2.7336   -4.7098    0.0000 N   0  0  0  0  0  0  0  0  0  0  0  0
   -1.4282   -4.1286    0.0000 C   0  0  0  0  0  0  0  0  0  0  0  0
   -0.6077   -4.2149    0.0000 C   0  0  0  0  0  0  0  0  0  0  0  0
    2.0837   -3.0215    0.0000 S   0  0  0  0  0  0  0  0  0  0  0  0
  1  2  1  0  0  0  0
  2  3  1  0  0  0  0
  2  4  1  0  0  0  0
  4  5  4  0  0  0  0
  5  6  4  0  0  0  0
  6  7  4  0  0  0  0
  7  8  1  0  0  0  0
  8  9  1  0  0  0  0
  9 10  2  0  0  0  0
  9 11  1  0  0  0  0
 11 12  1  0  0  0  0
 12 13  4  0  0  0  0
 13 14  4  0  0  0  0
 14 15  4  0  0  0  0
 15 16  1  0  0  0  0
 15 17  4  0  0  0  0
 17 18  4  0  0  0  0
 12 18  4  0  0  0  0
  7 19  4  0  0  0  0
  4 19  4  0  0  0  0
M  END

> <ChembankId>
3653021

> <SMILES>
CC(C)c1cnc(NC(=O)Nc2ccc(N)cc2)s1

> <InChI>


$$$$
3653022
  Marvin  11101114202D          

 19 20  0  0  0  0            999 V2000
    3.4656   -1.2991    0.0000 C   0  0  0  0  0  0  0  0  0  0  0  0
    2.7512   -1.7116    0.0000 C   0  0  0  0  0  0  0  0  0  0  0  0
    2.0367   -1.2991    0.0000 C   0  0  0  0  0  0  0  0  0  0  0  0
    2.7512   -2.5366    0.0000 C   0  0  0  0  0  0  0  0  0  0  0  0
    3.4186   -3.0215    0.0000 C   0  0  0  0  0  0  0  0  0  0  0  0
    3.1637   -3.8062    0.0000 N   0  0  0  0  0  0  0  0  0  0  0  0
    2.3387   -3.8062    0.0000 C   0  0  0  0  0  0  0  0  0  0  0  0
    1.8538   -4.4736    0.0000 N   0  0  0  0  0  0  0  0  0  0  0  0
    1.0333   -4.3874    0.0000 C   0  0  0  0  0  0  0  0  0  0  0  0
    0.6977   -3.6337    0.0000 O   0  0  0  0  0  0  0  0  0  0  0  0
    0.5484   -5.0548    0.0000 N   0  0  0  0  0  0  0  0  0  0  0  0
   -0.2721   -4.9686    0.0000 C   0  0  0  0  0  0  0  0  0  0  0  0
   -0.7571   -5.6360    0.0000 C   0  0  0  0  0  0  0  0  0  0  0  0
   -1.5775   -5.5498    0.0000 C   0  0  0  0  0  0  0  0  0  0  0  0
   -1.9131   -4.7961    0.0000 C   0  0  0  0  0  0  0  0  0  0  0  0
   -2.7336   -4.7098    0.0000 O   0  0  0  0  0  0  0  0  0  0  0  0
   -1.4282   -4.1286    0.0000 C   0  0  0  0  0  0  0  0  0  0  0  0
   -0.6077   -4.2149    0.0000 C   0  0  0  0  0  0  0  0  0  0  0  0
    2.0837   -3.0215    0.0000 S   0  0  0  0  0  0  0  0  0  0  0  0
  1  2  1  0  0  0  0
  2  3  1  0  0  0  0
  2  4  1  0  0  0  0
  4  5  4  0  0  0  0
  5  6  4  0  0  0  0
  6  7  4  0  0  0  0
  7  8  1  0  0  0  0
  8  9  1  0  0  0  0
  9 10  2  0  0  0  0
  9 11  1  0  0  0  0
 11 12  1  0  0  0  0
 12 13  4  0  0  0  0
 13 14  4  0  0  0  0
 14 15  4  0  0  0  0
 15 16  1  0  0  0  0
 15 17  4  0  0  0  0
 17 18  4  0  0  0  0
 12 18  4  0  0  0  0
  7 19  4  0  0  0  0
  4 19  4  0  0  0  0
M  END

> <ChembankId>
3653022

> <SMILES>
CC(C)c1cnc(NC(=O)Nc2ccc(O)cc2)s1

> <InChI>


$$$$
3653023
  Marvin  11101114202D          

 20 22  0  0  0  0            999 V2000
    0.4065    9.1688    0.0000 C   0  0  0  0  0  0  0  0  0  0  0  0
    0.4065    8.3438    0.0000 S   0  0  0  0  0  0  0  0  0  0  0  0
   -0.4185    8.3438    0.0000 O   0  0  0  0  0  0  0  0  0  0  0  0
    1.2315    8.3438    0.0000 O   0  0  0  0  0  0  0  0  0  0  0  0
    0.4065    7.5188    0.0000 C   0  0  0  0  0  0  0  0  0  0  0  0
    1.0739    7.0339    0.0000 C   0  0  0  0  0  0  0  0  0  0  0  0
    0.8190    6.2493    0.0000 C   0  0  0  0  0  0  0  0  0  0  0  0
   -0.0060    6.2493    0.0000 C   0  0  0  0  0  0  0  0  0  0  0  0
   -0.2609    7.0339    0.0000 S   0  0  0  0  0  0  0  0  0  0  0  0
   -0.4909    5.5819    0.0000 C   0  0  0  0  0  0  0  0  0  0  0  0
   -1.3114    5.6681    0.0000 O   0  0  0  0  0  0  0  0  0  0  0  0
   -0.1554    4.8282    0.0000 N   0  0  0  0  0  0  0  0  0  0  0  0
   -0.6403    4.1608    0.0000 C   0  0  0  0  0  0  0  0  0  0  0  0
   -0.3853    3.3761    0.0000 C   0  0  0  0  0  0  0  0  0  0  0  0
   -1.0528    2.8912    0.0000 C   0  0  0  0  0  0  0  0  0  0  0  0
   -1.7202    3.3761    0.0000 N   0  0  0  0  0  0  0  0  0  0  0  0
   -1.4653    4.1608    0.0000 N   0  0  0  0  0  0  0  0  0  0  0  0
   -1.0528    2.0662    0.0000 C   0  0  0  0  0  0  0  0  0  0  0  0
   -0.6403    1.3517    0.0000 C   0  0  0  0  0  0  0  0  0  0  0  0
   -1.4653    1.3517    0.0000 C   0  0  0  0  0  0  0  0  0  0  0  0
  1  2  1  0  0  0  0
  2  3  2  0  0  0  0
  2  4  2  0  0  0  0
  2  5  1  0  0  0  0
  5  6  4  0  0  0  0
  6  7  4  0  0  0  0
  7  8  4  0  0  0  0
  8  9  4  0  0  0  0
  5  9  4  0  0  0  0
  8 10  1  0  0  0  0
 10 11  2  0  0  0  0
 10 12  1  0  0  0  0
 12 13  1  0  0  0  0
 13 14  4  0  0  0  0
 14 15  4  0  0  0  0
 15 16  4  0  0  0  0
 16 17  4  0  0  0  0
 13 17  4  0  0  0  0
 15 18  1  0  0  0  0
 18 19  1  0  0  0  0
 19 20  1  0  0  0  0
 18 20  1  0  0  0  0
M  STY  1   1 DAT
M  SAL   1  1  16
M  SDT   1 MRV_IMPLICIT_H                                        
M  SDD   1     0.0000    0.0000    DR    ALL  0       0  
M  SED   1 IMPL_H1
M  END

> <ChembankId>
3653023

> <SMILES>
CS(=O)(=O)c1ccc(s1)C(=O)Nc2cc([nH]n2)C3CC3

> <InChI>


$$$$
3653024
  Marvin  11101114202D          

 35 35  0  0  0  0            999 V2000
   -5.7158   -8.2500    0.0000 C   0  0  0  0  0  0  0  0  0  0  0  0
   -5.0013   -7.8375    0.0000 C   0  0  0  0  0  0  0  0  0  0  0  0
   -5.0013   -7.0125    0.0000 C   0  0  0  0  0  0  0  0  0  0  0  0
   -4.2868   -8.2500    0.0000 C   0  0  0  0  0  0  0  0  0  0  0  0
   -3.5724   -7.8375    0.0000 C   0  0  0  0  0  0  0  0  0  0  0  0
   -2.8579   -8.2500    0.0000 N   0  0  0  0  0  0  0  0  0  0  0  0
   -2.1434   -7.8375    0.0000 C   0  0  0  0  0  0  0  0  0  0  0  0
   -2.1434   -7.0125    0.0000 O   0  0  0  0  0  0  0  0  0  0  0  0
   -1.4289   -8.2500    0.0000 C   0  0  0  0  0  0  0  0  0  0  0  0
   -1.4289   -9.0750    0.0000 C   0  0  0  0  0  0  0  0  0  0  0  0
   -2.1434   -9.4875    0.0000 C   0  0  0  0  0  0  0  0  0  0  0  0
   -2.1434  -10.3125    0.0000 C   0  0  0  0  0  0  0  0  0  0  0  0
   -2.8579   -9.0750    0.0000 C   0  0  0  0  0  0  0  0  0  0  0  0
   -0.7145   -7.8375    0.0000 N   0  0  0  0  0  0  0  0  0  0  0  0
    0.0000   -8.2500    0.0000 C   0  0  0  0  0  0  0  0  0  0  0  0
    0.0000   -9.0750    0.0000 O   0  0  0  0  0  0  0  0  0  0  0  0
    0.7145   -7.8375    0.0000 C   0  0  0  0  0  0  0  0  0  0  0  0
    0.7145   -7.0125    0.0000 C   0  0  0  0  0  0  0  0  0  0  0  0
    0.0000   -6.6000    0.0000 C   0  0  0  0  0  0  0  0  0  0  0  0
   -0.7145   -7.0125    0.0000 C   0  0  0  0  0  0  0  0  0  0  0  0
    0.0000   -5.7750    0.0000 C   0  0  0  0  0  0  0  0  0  0  0  0
    1.4289   -8.2500    0.0000 N   0  0  0  0  0  0  0  0  0  0  0  0
    2.1434   -7.8375    0.0000 C   0  0  0  0  0  0  0  0  0  0  0  0
    2.1434   -7.0125    0.0000 O   0  0  0  0  0  0  0  0  0  0  0  0
    2.8579   -8.2500    0.0000 O   0  0  0  0  0  0  0  0  0  0  0  0
    3.5724   -7.8375    0.0000 C   0  0  0  0  0  0  0  0  0  0  0  0
    4.2868   -8.2500    0.0000 C   0  0  0  0  0  0  0  0  0  0  0  0
    5.0013   -7.8375    0.0000 C   0  0  0  0  0  0  0  0  0  0  0  0
    5.7158   -8.2500    0.0000 C   0  0  0  0  0  0  0  0  0  0  0  0
    5.7158   -9.0750    0.0000 C   0  0  0  0  0  0  0  0  0  0  0  0
    5.0013   -9.4875    0.0000 C   0  0  0  0  0  0  0  0  0  0  0  0
    4.2868   -9.0750    0.0000 C   0  0  0  0  0  0  0  0  0  0  0  0
   -3.5724   -7.0125    0.0000 B   0  0  0  0  0  0  0  0  0  0  0  0
   -2.8579   -6.6000    0.0000 O   0  0  0  0  0  0  0  0  0  0  0  0
   -4.2868   -6.6000    0.0000 O   0  0  0  0  0  0  0  0  0  0  0  0
  1  2  1  0  0  0  0
  2  3  1  0  0  0  0
  2  4  1  0  0  0  0
  4  5  1  0  0  0  0
  5  6  1  0  0  0  0
  6  7  1  0  0  0  0
  7  8  2  0  0  0  0
  7  9  1  0  0  0  0
  9 10  1  0  0  0  0
 10 11  1  0  0  0  0
 11 12  1  0  0  0  0
 11 13  1  0  0  0  0
  9 14  1  0  0  0  0
 14 15  1  0  0  0  0
 15 16  2  0  0  0  0
 15 17  1  0  0  0  0
 17 18  1  0  0  0  0
 18 19  1  0  0  0  0
 19 20  1  0  0  0  0
 19 21  1  0  0  0  0
 17 22  1  0  0  0  0
 22 23  1  0  0  0  0
 23 24  2  0  0  0  0
 23 25  1  0  0  0  0
 25 26  1  0  0  0  0
 26 27  1  0  0  0  0
 27 28  4  0  0  0  0
 28 29  4  0  0  0  0
 29 30  4  0  0  0  0
 30 31  4  0  0  0  0
 31 32  4  0  0  0  0
 27 32  4  0  0  0  0
  5 33  1  0  0  0  0
 33 34  1  0  0  0  0
 33 35  1  0  0  0  0
M  END

> <ChembankId>
3653024

> <SMILES>
CC(C)CC(NC(=O)C(CC(C)C)NC(=O)C(CC(C)C)NC(=O)OCc1ccccc1)B(O)O

> <InChI>


$$$$
3653025
  Marvin  11101114202D          

 34 38  0  0  0  0            999 V2000
    0.0000   -1.6500    0.0000 C   0  0  0  0  0  0  0  0  0  0  0  0
    0.7145   -1.2375    0.0000 C   0  0  0  0  0  0  0  0  0  0  0  0
    0.7145   -0.4125    0.0000 C   0  0  0  0  0  0  0  0  0  0  0  0
    1.4289    0.0000    0.0000 C   0  0  0  0  0  0  0  0  0  0  0  0
    2.1434   -0.4125    0.0000 C   0  0  0  0  0  0  0  0  0  0  0  0
    2.8579    0.0000    0.0000 C   0  0  0  0  0  0  0  0  0  0  0  0
    3.5724   -0.4125    0.0000 C   0  0  0  0  0  0  0  0  0  0  0  0
    4.2868   -0.0000    0.0000 N   0  0  0  0  0  0  0  0  0  0  0  0
    5.0013   -0.4125    0.0000 C   0  0  0  0  0  0  0  0  0  0  0  0
    5.0013   -1.2375    0.0000 O   0  0  0  0  0  0  0  0  0  0  0  0
    5.7158   -0.0000    0.0000 C   0  0  0  0  0  0  0  0  0  0  0  0
    5.7158    0.8250    0.0000 C   0  0  0  0  0  0  0  0  0  0  0  0
    6.4302    1.2375    0.0000 C   0  0  0  0  0  0  0  0  0  0  0  0
    7.1447    0.8250    0.0000 C   0  0  0  0  0  0  0  0  0  0  0  0
    7.1447   -0.0000    0.0000 C   0  0  0  0  0  0  0  0  0  0  0  0
    7.8592   -0.4125    0.0000 S   0  0  0  0  0  0  0  0  0  0  0  0
    8.5737   -0.0000    0.0000 C   0  0  0  0  0  0  0  0  0  0  0  0
    9.2881   -0.4125    0.0000 C   0  0  0  0  0  0  0  0  0  0  0  0
   10.0418   -0.0769    0.0000 C   0  0  0  0  0  0  0  0  0  0  0  0
   10.5938   -0.6900    0.0000 C   0  0  0  0  0  0  0  0  0  0  0  0
   11.4143   -0.6038    0.0000 N   0  0  0  0  0  0  0  0  0  0  0  0
   11.8992   -1.2712    0.0000 C   0  0  0  0  0  0  0  0  0  0  0  0
   12.7197   -1.1850    0.0000 C   0  0  0  0  0  0  0  0  0  0  0  0
   13.2046   -1.8524    0.0000 C   0  0  0  0  0  0  0  0  0  0  0  0
   12.8691   -2.6061    0.0000 C   0  0  0  0  0  0  0  0  0  0  0  0
   12.0486   -2.6924    0.0000 C   0  0  0  0  0  0  0  0  0  0  0  0
   11.5637   -2.0249    0.0000 C   0  0  0  0  0  0  0  0  0  0  0  0
   10.1813   -1.4045    0.0000 N   0  0  0  0  0  0  0  0  0  0  0  0
    9.3744   -1.2330    0.0000 N   0  0  0  0  0  0  0  0  0  0  0  0
    6.4302   -0.4125    0.0000 C   0  0  0  0  0  0  0  0  0  0  0  0
    3.5724   -1.2375    0.0000 C   0  0  0  0  0  0  0  0  0  0  0  0
    2.8579   -1.6500    0.0000 C   0  0  0  0  0  0  0  0  0  0  0  0
    2.1434   -1.2375    0.0000 C   0  0  0  0  0  0  0  0  0  0  0  0
    1.4289   -1.6500    0.0000 N   0  0  0  0  0  0  0  0  0  0  0  0
  1  2  1  0  0  0  0
  2  3  4  0  0  0  0
  3  4  4  0  0  0  0
  4  5  4  0  0  0  0
  5  6  4  0  0  0  0
  6  7  4  0  0  0  0
  7  8  1  0  0  0  0
  8  9  1  0  0  0  0
  9 10  2  0  0  0  0
  9 11  1  0  0  0  0
 11 12  4  0  0  0  0
 12 13  4  0  0  0  0
 13 14  4  0  0  0  0
 14 15  4  0  0  0  0
 15 16  1  0  0  0  0
 16 17  1  0  0  0  0
 17 18  1  0  0  0  0
 18 19  4  0  0  0  0
 19 20  4  0  0  0  0
 20 21  1  0  0  0  0
 21 22  1  0  0  0  0
 22 23  4  0  0  0  0
 23 24  4  0  0  0  0
 24 25  4  0  0  0  0
 25 26  4  0  0  0  0
 26 27  4  0  0  0  0
 22 27  4  0  0  0  0
 20 28  4  0  0  0  0
 28 29  4  0  0  0  0
 18 29  4  0  0  0  0
 15 30  4  0  0  0  0
 11 30  4  0  0  0  0
  7 31  4  0  0  0  0
 31 32  4  0  0  0  0
 32 33  4  0  0  0  0
  5 33  4  0  0  0  0
 33 34  4  0  0  0  0
  2 34  4  0  0  0  0
M  STY  1   1 DAT
M  SAL   1  1  28
M  SDT   1 MRV_IMPLICIT_H                                        
M  SDD   1     0.0000    0.0000    DR    ALL  0       0  
M  SED   1 IMPL_H1
M  END

> <ChembankId>
3653025

> <SMILES>
Cc1ccc2cc(NC(=O)c3cccc(SCc4cc(Nc5ccccc5)[nH]n4)c3)ccc2n1

> <InChI>


$$$$
3653026
  Marvin  11101114202D          

 26 30  0  0  1  0            999 V2000
    0.9871    1.7060    0.0000 O   0  0  0  0  0  0  0  0  0  0  0  0
    1.7015    1.2935    0.0000 C   0  0  0  0  0  0  0  0  0  0  0  0
    2.4160    1.7060    0.0000 N   0  0  0  0  0  0  0  0  0  0  0  0
    2.4160    2.5310    0.0000 C   0  0  0  0  0  0  0  0  0  0  0  0
    1.7015    2.9435    0.0000 C   0  0  0  0  0  0  0  0  0  0  0  0
    1.7015    3.7685    0.0000 C   0  0  0  0  0  0  0  0  0  0  0  0
    2.4160    4.1810    0.0000 C   0  0  0  0  0  0  0  0  0  0  0  0
    3.1305    3.7685    0.0000 C   0  0  0  0  0  0  0  0  0  0  0  0
    3.8450    4.1810    0.0000 O   0  0  0  0  0  0  0  0  0  0  0  0
    3.8450    5.0060    0.0000 C   0  0  0  0  0  0  0  0  0  0  0  0
    4.5594    5.4185    0.0000 C   0  0  0  0  0  0  0  0  0  0  0  0
    4.5594    6.2435    0.0000 C   0  0  0  0  0  0  0  0  0  0  0  0
    5.2739    6.6560    0.0000 C   0  0  0  0  0  0  0  0  0  0  0  0
    5.9884    6.2435    0.0000 C   0  0  0  0  0  0  0  0  0  0  0  0
    5.9884    5.4185    0.0000 N   0  0  0  0  0  0  0  0  0  0  0  0
    5.2739    5.0060    0.0000 C   0  0  0  0  0  0  0  0  0  0  0  0
    3.1305    2.9435    0.0000 C   0  0  0  0  0  0  0  0  0  0  0  0
    1.7015    0.4685    0.0000 C   0  0  2  0  0  0  0  0  0  0  0  0
    2.4775    0.8178    0.0000 C   0  0  0  0  0  0  0  0  0  0  0  0
    2.5682   -0.0148    0.0000 C   0  0  2  0  0  0  0  0  0  0  0  0
    2.5027   -0.8474    0.0000 C   0  0  0  0  0  0  0  0  0  0  0  0
    1.7015   -0.5574    0.0000 C   0  0  1  0  0  0  0  0  0  0  0  0
    0.9004   -0.8474    0.0000 C   0  0  0  0  0  0  0  0  0  0  0  0
    0.8349   -0.0148    0.0000 C   0  0  2  0  0  0  0  0  0  0  0  0
    0.9256    0.8178    0.0000 C   0  0  0  0  0  0  0  0  0  0  0  0
    1.7015   -0.0405    0.0000 C   0  0  0  0  0  0  0  0  0  0  0  0
  1  2  2  0  0  0  0
  2  3  1  0  0  0  0
  3  4  1  0  0  0  0
  4  5  4  0  0  0  0
  5  6  4  0  0  0  0
  6  7  4  0  0  0  0
  7  8  4  0  0  0  0
  8  9  1  0  0  0  0
  9 10  1  0  0  0  0
 10 11  1  0  0  0  0
 11 12  4  0  0  0  0
 12 13  4  0  0  0  0
 13 14  4  0  0  0  0
 14 15  4  0  0  0  0
 15 16  4  0  0  0  0
 11 16  4  0  0  0  0
  8 17  4  0  0  0  0
  4 17  4  0  0  0  0
 18  2  1  6  0  0  0
 18 19  1  0  0  0  0
 20 19  1  6  0  0  0
 20 21  1  0  0  0  0
 22 21  1  1  0  0  0
 18 22  1  0  0  0  0
 22 23  1  0  0  0  0
 24 23  1  6  0  0  0
 24 25  1  0  0  0  0
 18 25  1  0  0  0  0
 24 26  1  0  0  0  0
 20 26  1  0  0  0  0
M  END

> <ChembankId>
3653026

> <SMILES>
O=C(Nc1cccc(OCc2cccnc2)c1)[C@@]34C[C@@H]5C[C@H]4C[C@H](C3)C5

> <InChI>


$$$$
3653028
  Marvin  11101114202D          

 27 29  0  0  0  0            999 V2000
    3.5724   -3.7125    0.0000 C   0  0  0  0  0  0  0  0  0  0  0  0
    4.2868   -4.1250    0.0000 C   0  0  0  0  0  0  0  0  0  0  0  0
    5.0013   -3.7125    0.0000 C   0  0  0  0  0  0  0  0  0  0  0  0
    4.2868   -4.9500    0.0000 C   0  0  0  0  0  0  0  0  0  0  0  0
    5.0013   -5.3625    0.0000 C   0  0  0  0  0  0  0  0  0  0  0  0
    5.0013   -6.1875    0.0000 C   0  0  0  0  0  0  0  0  0  0  0  0
    4.2868   -6.6000    0.0000 C   0  0  0  0  0  0  0  0  0  0  0  0
    4.2868   -7.4250    0.0000 N   0  0  0  0  0  0  0  0  0  0  0  0
    3.5724   -7.8375    0.0000 C   0  0  0  0  0  0  0  0  0  0  0  0
    2.8579   -7.4250    0.0000 O   0  0  0  0  0  0  0  0  0  0  0  0
    3.5724   -8.6625    0.0000 C   0  0  0  0  0  0  0  0  0  0  0  0
    4.2868   -9.0750    0.0000 C   0  0  0  0  0  0  0  0  0  0  0  0
    4.2868   -9.9000    0.0000 C   0  0  0  0  0  0  0  0  0  0  0  0
    3.5724  -10.3125    0.0000 C   0  0  0  0  0  0  0  0  0  0  0  0
    2.8579   -9.9000    0.0000 C   0  0  0  0  0  0  0  0  0  0  0  0
    2.1434  -10.3125    0.0000 S   0  0  0  0  0  0  0  0  0  0  0  0
    2.1434  -11.1375    0.0000 C   0  0  0  0  0  0  0  0  0  0  0  0
    1.4289  -11.5500    0.0000 C   0  0  0  0  0  0  0  0  0  0  0  0
    1.4289  -12.3750    0.0000 C   0  0  0  0  0  0  0  0  0  0  0  0
    0.7145  -12.7875    0.0000 N   0  0  0  0  0  0  0  0  0  0  0  0
    0.0000  -12.3750    0.0000 C   0  0  0  0  0  0  0  0  0  0  0  0
    0.0000  -11.5500    0.0000 C   0  0  0  0  0  0  0  0  0  0  0  0
    0.7145  -11.1375    0.0000 N   0  0  0  0  0  0  0  0  0  0  0  0
    2.8579   -9.0750    0.0000 C   0  0  0  0  0  0  0  0  0  0  0  0
    3.5724   -6.1875    0.0000 C   0  0  0  0  0  0  0  0  0  0  0  0
    3.5724   -5.3625    0.0000 C   0  0  0  0  0  0  0  0  0  0  0  0
    2.8579   -4.9500    0.0000 C   0  0  0  0  0  0  0  0  0  0  0  0
  1  2  1  0  0  0  0
  2  3  1  0  0  0  0
  2  4  1  0  0  0  0
  4  5  4  0  0  0  0
  5  6  4  0  0  0  0
  6  7  4  0  0  0  0
  7  8  1  0  0  0  0
  8  9  1  0  0  0  0
  9 10  2  0  0  0  0
  9 11  1  0  0  0  0
 11 12  4  0  0  0  0
 12 13  4  0  0  0  0
 13 14  4  0  0  0  0
 14 15  4  0  0  0  0
 15 16  1  0  0  0  0
 16 17  1  0  0  0  0
 17 18  1  0  0  0  0
 18 19  4  0  0  0  0
 19 20  4  0  0  0  0
 20 21  4  0  0  0  0
 21 22  4  0  0  0  0
 22 23  4  0  0  0  0
 18 23  4  0  0  0  0
 15 24  4  0  0  0  0
 11 24  4  0  0  0  0
  7 25  4  0  0  0  0
 25 26  4  0  0  0  0
  4 26  4  0  0  0  0
 26 27  1  0  0  0  0
M  END

> <ChembankId>
3653028

> <SMILES>
CC(C)c1ccc(NC(=O)c2cccc(SCc3cnccn3)c2)cc1C

> <InChI>


$$$$
3653029
  Marvin  11101114202D          

 30 33  0  0  0  0            999 V2000
    2.5645    8.2500    0.0000 C   0  0  0  0  0  0  0  0  0  0  0  0
    2.5645    7.4250    0.0000 O   0  0  0  0  0  0  0  0  0  0  0  0
    3.2789    7.0125    0.0000 C   0  0  0  0  0  0  0  0  0  0  0  0
    3.9934    7.4250    0.0000 C   0  0  0  0  0  0  0  0  0  0  0  0
    4.7079    7.0125    0.0000 C   0  0  0  0  0  0  0  0  0  0  0  0
    4.7079    6.1875    0.0000 C   0  0  0  0  0  0  0  0  0  0  0  0
    3.9934    5.7750    0.0000 C   0  0  0  0  0  0  0  0  0  0  0  0
    3.2789    6.1875    0.0000 C   0  0  0  0  0  0  0  0  0  0  0  0
    2.5645    5.7750    0.0000 C   0  0  0  0  0  0  0  0  0  0  0  0
    1.8500    6.1875    0.0000 C   0  0  0  0  0  0  0  0  0  0  0  0
    1.1355    5.7750    0.0000 C   0  0  0  0  0  0  0  0  0  0  0  0
    0.4210    6.1875    0.0000 O   0  0  0  0  0  0  0  0  0  0  0  0
    1.1355    4.9500    0.0000 N   0  0  0  0  0  0  0  0  0  0  0  0
    1.8500    4.5375    0.0000 C   0  0  0  0  0  0  0  0  0  0  0  0
    2.5645    4.9500    0.0000 C   0  0  0  0  0  0  0  0  0  0  0  0
    3.2789    4.5375    0.0000 C   0  0  0  0  0  0  0  0  0  0  0  0
    3.2789    3.7125    0.0000 C   0  0  0  0  0  0  0  0  0  0  0  0
    2.5645    3.3000    0.0000 C   0  0  0  0  0  0  0  0  0  0  0  0
    2.5645    2.4750    0.0000 C   0  0  0  0  0  0  0  0  0  0  0  0
    3.2789    2.0625    0.0000 S   0  0  0  0  0  0  0  0  0  0  0  0
    3.2789    1.2375    0.0000 C   0  0  0  0  0  0  0  0  0  0  0  0
    3.9934    0.8250    0.0000 N   0  0  0  0  0  0  0  0  0  0  0  0
    3.9934    0.0000    0.0000 C   0  0  0  0  0  0  0  0  0  0  0  0
    3.2789   -0.4125    0.0000 N   0  0  0  0  0  0  0  0  0  0  0  0
    2.5645    0.0000    0.0000 C   0  0  0  0  0  0  0  0  0  0  0  0
    1.7798   -0.2549    0.0000 N   0  0  0  0  0  0  0  0  0  0  0  0
    1.2949    0.4125    0.0000 N   0  0  0  0  0  0  0  0  0  0  0  0
    1.7798    1.0799    0.0000 C   0  0  0  0  0  0  0  0  0  0  0  0
    2.5645    0.8250    0.0000 C   0  0  0  0  0  0  0  0  0  0  0  0
    1.8500    3.7125    0.0000 C   0  0  0  0  0  0  0  0  0  0  0  0
  1  2  1  0  0  0  0
  2  3  1  0  0  0  0
  3  4  4  0  0  0  0
  4  5  4  0  0  0  0
  5  6  4  0  0  0  0
  6  7  4  0  0  0  0
  7  8  4  0  0  0  0
  3  8  4  0  0  0  0
  8  9  1  0  0  0  0
  9 10  2  0  0  0  0
 10 11  1  0  0  0  0
 11 12  2  0  0  0  0
 11 13  1  0  0  0  0
 13 14  1  0  0  0  0
 14 15  4  0  0  0  0
 15 16  4  0  0  0  0
 16 17  4  0  0  0  0
 17 18  4  0  0  0  0
 18 19  1  0  0  0  0
 19 20  1  0  0  0  0
 20 21  1  0  0  0  0
 21 22  4  0  0  0  0
 22 23  4  0  0  0  0
 23 24  4  0  0  0  0
 24 25  4  0  0  0  0
 25 26  4  0  0  0  0
 26 27  4  0  0  0  0
 27 28  4  0  0  0  0
 28 29  4  0  0  0  0
 21 29  4  0  0  0  0
 25 29  4  0  0  0  0
 18 30  4  0  0  0  0
 14 30  4  0  0  0  0
M  STY  1   1 DAT
M  SAL   1  1  26
M  SDT   1 MRV_IMPLICIT_H                                        
M  SDD   1     0.0000    0.0000    DR    ALL  0       0  
M  SED   1 IMPL_H1
M  END

> <ChembankId>
3653029

> <SMILES>
COc1ccccc1/C=C/C(=O)Nc2cccc(CSc3ncnc4[nH]ncc34)c2

> <InChI>


$$$$
3653031
  Marvin  11101114202D          

 41 45  0  0  0  0            999 V2000
    1.5356   -1.7116    0.0000 C   0  0  0  0  0  0  0  0  0  0  0  0
    1.5356   -2.5366    0.0000 O   0  0  0  0  0  0  0  0  0  0  0  0
    0.8212   -2.9491    0.0000 C   0  0  0  0  0  0  0  0  0  0  0  0
    0.8212   -3.7741    0.0000 C   0  0  0  0  0  0  0  0  0  0  0  0
    0.1067   -4.1866    0.0000 C   0  0  0  0  0  0  0  0  0  0  0  0
   -0.6078   -3.7741    0.0000 C   0  0  0  0  0  0  0  0  0  0  0  0
   -1.3222   -4.1866    0.0000 N   0  0  0  0  0  0  0  0  0  0  0  0
   -1.3222   -5.0116    0.0000 C   0  0  0  0  0  0  0  0  0  0  0  0
   -1.9897   -5.4965    0.0000 C   0  0  0  0  0  0  0  0  0  0  0  0
   -1.7347   -6.2812    0.0000 C   0  0  0  0  0  0  0  0  0  0  0  0
   -2.2197   -6.9486    0.0000 C   0  0  0  0  0  0  0  0  0  0  0  0
   -1.8841   -7.7023    0.0000 O   0  0  0  0  0  0  0  0  0  0  0  0
   -2.3690   -8.3697    0.0000 C   0  0  0  0  0  0  0  0  0  0  0  0
   -2.0335   -9.1234    0.0000 C   0  0  0  0  0  0  0  0  0  0  0  0
   -2.5184   -9.7908    0.0000 C   0  0  0  0  0  0  0  0  0  0  0  0
   -3.3389   -9.7046    0.0000 C   0  0  0  0  0  0  0  0  0  0  0  0
   -3.6744   -8.9509    0.0000 C   0  0  0  0  0  0  0  0  0  0  0  0
   -3.1895   -8.2835    0.0000 C   0  0  0  0  0  0  0  0  0  0  0  0
   -3.5251   -7.5298    0.0000 F   0  0  0  0  0  0  0  0  0  0  0  0
   -2.1828  -10.5445    0.0000 C   0  0  0  0  0  0  0  0  0  0  0  0
   -2.6678  -11.2119    0.0000 O   0  0  0  0  0  0  0  0  0  0  0  0
   -1.3624  -10.6307    0.0000 N   0  0  0  0  0  0  0  0  0  0  0  0
   -1.0268  -11.3844    0.0000 C   0  0  0  0  0  0  0  0  0  0  0  0
   -0.2063  -11.4706    0.0000 C   0  0  0  0  0  0  0  0  0  0  0  0
    0.1292  -12.2243    0.0000 C   0  0  0  0  0  0  0  0  0  0  0  0
   -0.3557  -12.8918    0.0000 C   0  0  0  0  0  0  0  0  0  0  0  0
   -0.0201  -13.6454    0.0000 N   0  0  0  0  0  0  0  0  0  0  0  0
    0.7869  -13.8170    0.0000 C   0  0  0  0  0  0  0  0  0  0  0  0
    0.8731  -14.6374    0.0000 C   0  0  0  0  0  0  0  0  0  0  0  0
    0.1194  -14.9730    0.0000 C   0  0  0  0  0  0  0  0  0  0  0  0
   -0.4326  -14.3599    0.0000 C   0  0  0  0  0  0  0  0  0  0  0  0
   -1.1762  -12.8055    0.0000 C   0  0  0  0  0  0  0  0  0  0  0  0
   -1.5117  -12.0518    0.0000 C   0  0  0  0  0  0  0  0  0  0  0  0
   -1.6611  -13.4730    0.0000 C   0  0  0  0  0  0  0  0  0  0  0  0
   -2.1460  -14.1404    0.0000 F   0  0  0  0  0  0  0  0  0  0  0  0
   -2.3285  -12.9880    0.0000 F   0  0  0  0  0  0  0  0  0  0  0  0
   -0.9936  -13.9579    0.0000 F   0  0  0  0  0  0  0  0  0  0  0  0
   -0.9097   -6.2812    0.0000 N   0  0  0  0  0  0  0  0  0  0  0  0
   -0.6548   -5.4965    0.0000 N   0  0  0  0  0  0  0  0  0  0  0  0
   -0.6078   -2.9491    0.0000 C   0  0  0  0  0  0  0  0  0  0  0  0
    0.1067   -2.5366    0.0000 N   0  0  0  0  0  0  0  0  0  0  0  0
  1  2  1  0  0  0  0
  2  3  1  0  0  0  0
  3  4  4  0  0  0  0
  4  5  4  0  0  0  0
  5  6  4  0  0  0  0
  6  7  1  0  0  0  0
  7  8  1  0  0  0  0
  8  9  4  0  0  0  0
  9 10  4  0  0  0  0
 10 11  1  0  0  0  0
 11 12  1  0  0  0  0
 12 13  1  0  0  0  0
 13 14  4  0  0  0  0
 14 15  4  0  0  0  0
 15 16  4  0  0  0  0
 16 17  4  0  0  0  0
 17 18  4  0  0  0  0
 13 18  4  0  0  0  0
 18 19  1  0  0  0  0
 15 20  1  0  0  0  0
 20 21  2  0  0  0  0
 20 22  1  0  0  0  0
 22 23  1  0  0  0  0
 23 24  4  0  0  0  0
 24 25  4  0  0  0  0
 25 26  4  0  0  0  0
 26 27  1  0  0  0  0
 27 28  1  0  0  0  0
 28 29  1  0  0  0  0
 29 30  1  0  0  0  0
 30 31  1  0  0  0  0
 27 31  1  0  0  0  0
 26 32  4  0  0  0  0
 32 33  4  0  0  0  0
 23 33  4  0  0  0  0
 32 34  1  0  0  0  0
 34 35  1  0  0  0  0
 34 36  1  0  0  0  0
 34 37  1  0  0  0  0
 10 38  4  0  0  0  0
 38 39  4  0  0  0  0
  8 39  4  0  0  0  0
  6 40  4  0  0  0  0
 40 41  4  0  0  0  0
  3 41  4  0  0  0  0
M  STY  1   1 DAT
M  SAL   1  1  38
M  SDT   1 MRV_IMPLICIT_H                                        
M  SDD   1     0.0000    0.0000    DR    ALL  0       0  
M  SED   1 IMPL_H1
M  END

> <ChembankId>
3653031

> <SMILES>
COc1ccc(Nc2cc(COc3cc(ccc3F)C(=O)Nc4ccc(N5CCCC5)c(c4)C(F)(F)F)[nH]n2)cn1

> <InChI>


$$$$
3653032
  Marvin  11101114202D          

 24 26  0  0  0  0            999 V2000
    4.1801   -4.1866    0.0000 C   0  0  0  0  0  0  0  0  0  0  0  0
    4.1801   -5.0116    0.0000 C   0  0  0  0  0  0  0  0  0  0  0  0
    4.8476   -5.4965    0.0000 C   0  0  0  0  0  0  0  0  0  0  0  0
    4.5926   -6.2812    0.0000 C   0  0  0  0  0  0  0  0  0  0  0  0
    5.0775   -6.9486    0.0000 C   0  0  0  0  0  0  0  0  0  0  0  0
    5.8980   -6.8624    0.0000 O   0  0  0  0  0  0  0  0  0  0  0  0
    4.7420   -7.7023    0.0000 N   0  0  0  0  0  0  0  0  0  0  0  0
    5.2269   -8.3697    0.0000 C   0  0  0  0  0  0  0  0  0  0  0  0
    6.0474   -8.2835    0.0000 C   0  0  0  0  0  0  0  0  0  0  0  0
    6.5323   -8.9509    0.0000 C   0  0  0  0  0  0  0  0  0  0  0  0
    6.1968   -9.7046    0.0000 C   0  0  0  0  0  0  0  0  0  0  0  0
    5.3763   -9.7908    0.0000 C   0  0  0  0  0  0  0  0  0  0  0  0
    5.0407  -10.5445    0.0000 O   0  0  0  0  0  0  0  0  0  0  0  0
    5.5256  -11.2119    0.0000 C   0  0  0  0  0  0  0  0  0  0  0  0
    5.1901  -11.9656    0.0000 C   0  0  0  0  0  0  0  0  0  0  0  0
    5.6750  -12.6330    0.0000 C   0  0  0  0  0  0  0  0  0  0  0  0
    5.3394  -13.3867    0.0000 C   0  0  0  0  0  0  0  0  0  0  0  0
    4.5190  -13.4730    0.0000 C   0  0  0  0  0  0  0  0  0  0  0  0
    4.0340  -12.8055    0.0000 N   0  0  0  0  0  0  0  0  0  0  0  0
    4.3696  -12.0518    0.0000 C   0  0  0  0  0  0  0  0  0  0  0  0
    4.8914   -9.1234    0.0000 C   0  0  0  0  0  0  0  0  0  0  0  0
    3.7676   -6.2812    0.0000 N   0  0  0  0  0  0  0  0  0  0  0  0
    3.2827   -6.9486    0.0000 C   0  0  0  0  0  0  0  0  0  0  0  0
    3.5127   -5.4965    0.0000 N   0  0  0  0  0  0  0  0  0  0  0  0
  1  2  1  0  0  0  0
  2  3  4  0  0  0  0
  3  4  4  0  0  0  0
  4  5  1  0  0  0  0
  5  6  2  0  0  0  0
  5  7  1  0  0  0  0
  7  8  1  0  0  0  0
  8  9  4  0  0  0  0
  9 10  4  0  0  0  0
 10 11  4  0  0  0  0
 11 12  4  0  0  0  0
 12 13  1  0  0  0  0
 13 14  1  0  0  0  0
 14 15  1  0  0  0  0
 15 16  4  0  0  0  0
 16 17  4  0  0  0  0
 17 18  4  0  0  0  0
 18 19  4  0  0  0  0
 19 20  4  0  0  0  0
 15 20  4  0  0  0  0
 12 21  4  0  0  0  0
  8 21  4  0  0  0  0
  4 22  4  0  0  0  0
 22 23  1  0  0  0  0
 22 24  4  0  0  0  0
  2 24  4  0  0  0  0
M  END

> <ChembankId>
3653032

> <SMILES>
Cc1cc(C(=O)Nc2cccc(OCc3cccnc3)c2)n(C)n1

> <InChI>


$$$$
3653033
  Marvin  11101114202D          

 31 34  0  0  0  0            999 V2000
   -5.7158   -4.9500    0.0000 C   0  0  0  0  0  0  0  0  0  0  0  0
   -5.7158   -4.1250    0.0000 C   0  0  0  0  0  0  0  0  0  0  0  0
   -6.4302   -3.7125    0.0000 C   0  0  0  0  0  0  0  0  0  0  0  0
   -5.0013   -3.7125    0.0000 C   0  0  0  0  0  0  0  0  0  0  0  0
   -5.0013   -2.8875    0.0000 C   0  0  0  0  0  0  0  0  0  0  0  0
   -4.2868   -2.4750    0.0000 C   0  0  0  0  0  0  0  0  0  0  0  0
   -3.5724   -2.8875    0.0000 C   0  0  0  0  0  0  0  0  0  0  0  0
   -2.8579   -2.4750    0.0000 N   0  0  0  0  0  0  0  0  0  0  0  0
   -2.1434   -2.8875    0.0000 C   0  0  0  0  0  0  0  0  0  0  0  0
   -2.1434   -3.7125    0.0000 O   0  0  0  0  0  0  0  0  0  0  0  0
   -1.4289   -2.4750    0.0000 C   0  0  0  0  0  0  0  0  0  0  0  0
   -1.4289   -1.6500    0.0000 C   0  0  0  0  0  0  0  0  0  0  0  0
   -0.7145   -1.2375    0.0000 C   0  0  0  0  0  0  0  0  0  0  0  0
    0.0000   -1.6500    0.0000 C   0  0  0  0  0  0  0  0  0  0  0  0
    0.0000   -2.4750    0.0000 C   0  0  0  0  0  0  0  0  0  0  0  0
    0.7145   -2.8875    0.0000 O   0  0  0  0  0  0  0  0  0  0  0  0
    1.4289   -2.4750    0.0000 C   0  0  0  0  0  0  0  0  0  0  0  0
    1.4289   -1.6500    0.0000 C   0  0  0  0  0  0  0  0  0  0  0  0
    0.7145   -1.2375    0.0000 C   0  0  0  0  0  0  0  0  0  0  0  0
    0.7145   -0.4125    0.0000 N   0  0  0  0  0  0  0  0  0  0  0  0
    1.4289    0.0000    0.0000 C   0  0  0  0  0  0  0  0  0  0  0  0
    2.1434   -0.4125    0.0000 C   0  0  0  0  0  0  0  0  0  0  0  0
    2.8579    0.0000    0.0000 C   0  0  0  0  0  0  0  0  0  0  0  0
    3.5724   -0.4125    0.0000 C   0  0  0  0  0  0  0  0  0  0  0  0
    3.5724   -1.2375    0.0000 C   0  0  0  0  0  0  0  0  0  0  0  0
    2.8579   -1.6500    0.0000 C   0  0  0  0  0  0  0  0  0  0  0  0
    2.1434   -1.2375    0.0000 C   0  0  0  0  0  0  0  0  0  0  0  0
   -0.7145   -2.8875    0.0000 C   0  0  0  0  0  0  0  0  0  0  0  0
   -3.5724   -3.7125    0.0000 C   0  0  0  0  0  0  0  0  0  0  0  0
   -4.2868   -4.1250    0.0000 C   0  0  0  0  0  0  0  0  0  0  0  0
   -4.2868   -4.9500    0.0000 C   0  0  0  0  0  0  0  0  0  0  0  0
  1  2  1  0  0  0  0
  2  3  1  0  0  0  0
  2  4  1  0  0  0  0
  4  5  4  0  0  0  0
  5  6  4  0  0  0  0
  6  7  4  0  0  0  0
  7  8  1  0  0  0  0
  8  9  1  0  0  0  0
  9 10  2  0  0  0  0
  9 11  1  0  0  0  0
 11 12  4  0  0  0  0
 12 13  4  0  0  0  0
 13 14  4  0  0  0  0
 14 15  4  0  0  0  0
 15 16  1  0  0  0  0
 16 17  1  0  0  0  0
 17 18  1  0  0  0  0
 18 19  4  0  0  0  0
 19 20  4  0  0  0  0
 20 21  4  0  0  0  0
 21 22  4  0  0  0  0
 22 23  4  0  0  0  0
 23 24  4  0  0  0  0
 24 25  4  0  0  0  0
 25 26  4  0  0  0  0
 26 27  4  0  0  0  0
 18 27  4  0  0  0  0
 22 27  4  0  0  0  0
 15 28  4  0  0  0  0
 11 28  4  0  0  0  0
  7 29  4  0  0  0  0
 29 30  4  0  0  0  0
  4 30  4  0  0  0  0
 30 31  1  0  0  0  0
M  END

> <ChembankId>
3653033

> <SMILES>
CC(C)c1ccc(NC(=O)c2cccc(OCc3cncc4ccccc34)c2)cc1C

> <InChI>


$$$$
3653034
  Marvin  11101114202D          

 39 43  0  0  0  0            999 V2000
    1.4289   -4.1250    0.0000 C   0  0  0  0  0  0  0  0  0  0  0  0
    0.7145   -3.7125    0.0000 C   0  0  0  0  0  0  0  0  0  0  0  0
    0.7145   -2.8875    0.0000 O   0  0  0  0  0  0  0  0  0  0  0  0
    0.0000   -2.4750    0.0000 C   0  0  0  0  0  0  0  0  0  0  0  0
   -0.7145   -2.8875    0.0000 C   0  0  0  0  0  0  0  0  0  0  0  0
   -1.4289   -2.4750    0.0000 C   0  0  0  0  0  0  0  0  0  0  0  0
   -1.4289   -1.6500    0.0000 C   0  0  0  0  0  0  0  0  0  0  0  0
   -0.7145   -1.2375    0.0000 C   0  0  0  0  0  0  0  0  0  0  0  0
    0.0000   -1.6500    0.0000 C   0  0  0  0  0  0  0  0  0  0  0  0
    0.7145   -1.2375    0.0000 N   0  0  0  0  0  0  0  0  0  0  0  0
    0.7145   -0.4125    0.0000 C   0  0  0  0  0  0  0  0  0  0  0  0
    1.4289    0.0000    0.0000 N   0  0  0  0  0  0  0  0  0  0  0  0
    2.1434   -0.4125    0.0000 C   0  0  0  0  0  0  0  0  0  0  0  0
    2.8579    0.0000    0.0000 C   0  0  0  0  0  0  0  0  0  0  0  0
    3.5724   -0.4125    0.0000 C   0  0  0  0  0  0  0  0  0  0  0  0
    3.5724   -1.2375    0.0000 C   0  0  0  0  0  0  0  0  0  0  0  0
    2.8579   -1.6500    0.0000 C   0  0  0  0  0  0  0  0  0  0  0  0
    2.1434   -1.2375    0.0000 C   0  0  0  0  0  0  0  0  0  0  0  0
    1.4289   -1.6500    0.0000 C   0  0  0  0  0  0  0  0  0  0  0  0
    1.4289   -2.4750    0.0000 O   0  0  0  0  0  0  0  0  0  0  0  0
    0.0000    0.0000    0.0000 C   0  0  0  0  0  0  0  0  0  0  0  0
   -0.7145   -0.4125    0.0000 C   0  0  0  0  0  0  0  0  0  0  0  0
    0.0000    0.8250    0.0000 N   0  0  0  0  0  0  0  0  0  0  0  0
   -0.7145    1.2375    0.0000 C   0  0  0  0  0  0  0  0  0  0  0  0
   -0.7145    2.0625    0.0000 C   0  0  0  0  0  0  0  0  0  0  0  0
    0.0000    2.4750    0.0000 N   0  0  0  0  0  0  0  0  0  0  0  0
    0.7145    2.0625    0.0000 C   0  0  0  0  0  0  0  0  0  0  0  0
    0.7145    1.2375    0.0000 C   0  0  0  0  0  0  0  0  0  0  0  0
    0.0000    3.3000    0.0000 C   0  0  0  0  0  0  0  0  0  0  0  0
   -0.7145    3.7125    0.0000 O   0  0  0  0  0  0  0  0  0  0  0  0
    0.7145    3.7125    0.0000 C   0  0  0  0  0  0  0  0  0  0  0  0
    0.7145    4.5375    0.0000 O   0  0  0  0  0  0  0  0  0  0  0  0
    0.0000    4.9500    0.0000 C   0  0  0  0  0  0  0  0  0  0  0  0
   -0.7145    4.5375    0.0000 C   0  0  0  0  0  0  0  0  0  0  0  0
   -1.4289    4.9500    0.0000 C   0  0  0  0  0  0  0  0  0  0  0  0
   -1.4289    5.7750    0.0000 C   0  0  0  0  0  0  0  0  0  0  0  0
   -2.1434    6.1875    0.0000 Cl  0  0  0  0  0  0  0  0  0  0  0  0
   -0.7145    6.1875    0.0000 C   0  0  0  0  0  0  0  0  0  0  0  0
    0.0000    5.7750    0.0000 C   0  0  0  0  0  0  0  0  0  0  0  0
  1  2  1  0  0  0  0
  2  3  1  0  0  0  0
  3  4  1  0  0  0  0
  4  5  4  0  0  0  0
  5  6  4  0  0  0  0
  6  7  4  0  0  0  0
  7  8  4  0  0  0  0
  8  9  4  0  0  0  0
  4  9  4  0  0  0  0
  9 10  1  0  0  0  0
 10 11  4  0  0  0  0
 11 12  4  0  0  0  0
 12 13  4  0  0  0  0
 13 14  4  0  0  0  0
 14 15  4  0  0  0  0
 15 16  4  0  0  0  0
 16 17  4  0  0  0  0
 17 18  4  0  0  0  0
 13 18  4  0  0  0  0
 18 19  4  0  0  0  0
 10 19  4  0  0  0  0
 19 20  2  0  0  0  0
 11 21  1  0  0  0  0
 21 22  1  0  0  0  0
 21 23  1  0  0  0  0
 23 24  1  0  0  0  0
 24 25  1  0  0  0  0
 25 26  1  0  0  0  0
 26 27  1  0  0  0  0
 27 28  1  0  0  0  0
 23 28  1  0  0  0  0
 26 29  1  0  0  0  0
 29 30  2  0  0  0  0
 29 31  1  0  0  0  0
 31 32  1  0  0  0  0
 32 33  1  0  0  0  0
 33 34  4  0  0  0  0
 34 35  4  0  0  0  0
 35 36  4  0  0  0  0
 36 37  1  0  0  0  0
 36 38  4  0  0  0  0
 38 39  4  0  0  0  0
 33 39  4  0  0  0  0
M  END

> <ChembankId>
3653034

> <SMILES>
CCOc1ccccc1n2c(nc3ccccc3c2=O)C(C)N4CCN(CC4)C(=O)COc5ccc(Cl)cc5

> <InChI>


$$$$
3653035
  Marvin  11101114202D          

 31 34  0  0  1  0            999 V2000
    4.5546    3.0364    0.0000 C   0  0  0  0  0  0  0  0  0  0  0  0
    4.0025    2.4233    0.0000 O   0  0  0  0  0  0  0  0  0  0  0  0
    4.2575    1.6387    0.0000 C   0  0  0  0  0  0  0  0  0  0  0  0
    5.0645    1.4672    0.0000 O   0  0  0  0  0  0  0  0  0  0  0  0
    3.7054    1.0256    0.0000 C   0  0  2  0  0  0  0  0  0  0  0  0
    2.8985    1.1971    0.0000 C   0  0  0  0  0  0  0  0  0  0  0  0
    2.3464    0.5840    0.0000 C   0  0  0  0  0  0  0  0  0  0  0  0
    2.6014   -0.2006    0.0000 C   0  0  0  0  0  0  0  0  0  0  0  0
    1.9339   -0.6855    0.0000 N   0  0  0  0  0  0  0  0  0  0  0  0
    1.2665   -0.2006    0.0000 C   0  0  0  0  0  0  0  0  0  0  0  0
    0.4595   -0.3721    0.0000 C   0  0  0  0  0  0  0  0  0  0  0  0
   -0.0925    0.2410    0.0000 C   0  0  0  0  0  0  0  0  0  0  0  0
    0.1624    1.0256    0.0000 C   0  0  0  0  0  0  0  0  0  0  0  0
    0.9694    1.1971    0.0000 C   0  0  0  0  0  0  0  0  0  0  0  0
    1.5214    0.5840    0.0000 C   0  0  0  0  0  0  0  0  0  0  0  0
    3.4084   -0.3721    0.0000 C   0  0  2  0  0  0  0  0  0  0  0  0
    3.9604    0.2410    0.0000 N   0  0  0  0  0  0  0  0  0  0  0  0
    4.7674    0.0694    0.0000 C   0  0  0  0  0  0  0  0  0  0  0  0
    5.0223   -0.7152    0.0000 O   0  0  0  0  0  0  0  0  0  0  0  0
    5.3194    0.6825    0.0000 C   0  0  0  0  0  0  0  0  0  0  0  0
    6.1264    0.5110    0.0000 Cl  0  0  0  0  0  0  0  0  0  0  0  0
    3.6633   -1.1567    0.0000 C   0  0  0  0  0  0  0  0  0  0  0  0
    4.4703   -1.3283    0.0000 C   0  0  0  0  0  0  0  0  0  0  0  0
    4.7252   -2.1129    0.0000 C   0  0  0  0  0  0  0  0  0  0  0  0
    4.1732   -2.7260    0.0000 C   0  0  0  0  0  0  0  0  0  0  0  0
    3.3662   -2.5545    0.0000 C   0  0  0  0  0  0  0  0  0  0  0  0
    3.1113   -1.7698    0.0000 C   0  0  0  0  0  0  0  0  0  0  0  0
    4.4281   -3.5106    0.0000 C   0  0  0  0  0  0  0  0  0  0  0  0
    5.2351   -3.6821    0.0000 O   0  0  0  0  0  0  0  0  0  0  0  0
    3.8761   -4.1237    0.0000 O   0  0  0  0  0  0  0  0  0  0  0  0
    4.1310   -4.9083    0.0000 C   0  0  0  0  0  0  0  0  0  0  0  0
  1  2  1  0  0  0  0
  2  3  1  0  0  0  0
  3  4  2  0  0  0  0
  5  3  1  1  0  0  0
  5  6  1  0  0  0  0
  6  7  1  0  0  0  0
  7  8  4  0  0  0  0
  8  9  4  0  0  0  0
  9 10  4  0  0  0  0
 10 11  4  0  0  0  0
 11 12  4  0  0  0  0
 12 13  4  0  0  0  0
 13 14  4  0  0  0  0
 14 15  4  0  0  0  0
  7 15  4  0  0  0  0
 10 15  4  0  0  0  0
  8 16  1  0  0  0  0
 16 17  1  0  0  0  0
  5 17  1  0  0  0  0
 17 18  1  0  0  0  0
 18 19  2  0  0  0  0
 18 20  1  0  0  0  0
 20 21  1  0  0  0  0
 16 22  1  6  0  0  0
 22 23  4  0  0  0  0
 23 24  4  0  0  0  0
 24 25  4  0  0  0  0
 25 26  4  0  0  0  0
 26 27  4  0  0  0  0
 22 27  4  0  0  0  0
 25 28  1  0  0  0  0
 28 29  2  0  0  0  0
 28 30  1  0  0  0  0
 30 31  1  0  0  0  0
M  STY  1   1 DAT
M  SAL   1  1   9
M  SDT   1 MRV_IMPLICIT_H                                        
M  SDD   1     0.0000    0.0000    DR    ALL  0       0  
M  SED   1 IMPL_H1
M  END

> <ChembankId>
3653035

> <SMILES>
COC(=O)[C@@H]1Cc2c([nH]c3ccccc23)[C@H](N1C(=O)CCl)c4ccc(cc4)C(=O)OC

> <InChI>


$$$$
3653037
  Marvin  11101114202D          

 33 36  0  0  0  0            999 V2000
   -3.5724   -4.5375    0.0000 C   0  0  0  0  0  0  0  0  0  0  0  0
   -2.8579   -4.1250    0.0000 O   0  0  0  0  0  0  0  0  0  0  0  0
   -2.1434   -4.5375    0.0000 C   0  0  0  0  0  0  0  0  0  0  0  0
   -1.4289   -4.1250    0.0000 C   0  0  0  0  0  0  0  0  0  0  0  0
   -0.7145   -4.5375    0.0000 O   0  0  0  0  0  0  0  0  0  0  0  0
    0.0000   -4.1250    0.0000 C   0  0  0  0  0  0  0  0  0  0  0  0
    0.0000   -3.3000    0.0000 O   0  0  0  0  0  0  0  0  0  0  0  0
    0.7145   -4.5375    0.0000 C   0  0  0  0  0  0  0  0  0  0  0  0
    0.7145   -5.3625    0.0000 C   0  0  0  0  0  0  0  0  0  0  0  0
    0.0000   -5.7750    0.0000 C   0  0  0  0  0  0  0  0  0  0  0  0
    1.4289   -5.7750    0.0000 N   0  0  0  0  0  0  0  0  0  0  0  0
    2.1434   -5.3625    0.0000 C   0  0  0  0  0  0  0  0  0  0  0  0
    2.1434   -4.5375    0.0000 C   0  0  0  0  0  0  0  0  0  0  0  0
    1.4289   -4.1250    0.0000 C   0  0  0  0  0  0  0  0  0  0  0  0
    1.4289   -3.3000    0.0000 C   0  0  0  0  0  0  0  0  0  0  0  0
    0.7145   -2.8875    0.0000 C   0  0  0  0  0  0  0  0  0  0  0  0
    0.7145   -2.0625    0.0000 C   0  0  0  0  0  0  0  0  0  0  0  0
    1.4289   -1.6500    0.0000 C   0  0  0  0  0  0  0  0  0  0  0  0
    2.1434   -2.0625    0.0000 C   0  0  0  0  0  0  0  0  0  0  0  0
    2.1434   -2.8875    0.0000 C   0  0  0  0  0  0  0  0  0  0  0  0
    2.8579   -3.3000    0.0000 F   0  0  0  0  0  0  0  0  0  0  0  0
    2.8579   -4.1250    0.0000 C   0  0  0  0  0  0  0  0  0  0  0  0
    3.3428   -3.4576    0.0000 O   0  0  0  0  0  0  0  0  0  0  0  0
    3.5724   -4.5375    0.0000 C   0  0  0  0  0  0  0  0  0  0  0  0
    3.5724   -5.3625    0.0000 C   0  0  0  0  0  0  0  0  0  0  0  0
    2.8579   -5.7750    0.0000 C   0  0  0  0  0  0  0  0  0  0  0  0
    4.2868   -5.7750    0.0000 C   0  0  0  0  0  0  0  0  0  0  0  0
    5.0013   -5.3625    0.0000 C   0  0  0  0  0  0  0  0  0  0  0  0
    5.7158   -5.7750    0.0000 C   0  0  0  0  0  0  0  0  0  0  0  0
    5.7158   -6.6000    0.0000 C   0  0  0  0  0  0  0  0  0  0  0  0
    6.4302   -7.0125    0.0000 Cl  0  0  0  0  0  0  0  0  0  0  0  0
    5.0013   -7.0125    0.0000 C   0  0  0  0  0  0  0  0  0  0  0  0
    4.2868   -6.6000    0.0000 C   0  0  0  0  0  0  0  0  0  0  0  0
  1  2  1  0  0  0  0
  2  3  1  0  0  0  0
  3  4  1  0  0  0  0
  4  5  1  0  0  0  0
  5  6  1  0  0  0  0
  6  7  2  0  0  0  0
  6  8  1  0  0  0  0
  8  9  2  0  0  0  0
  9 10  1  0  0  0  0
  9 11  1  0  0  0  0
 11 12  1  0  0  0  0
 12 13  2  0  0  0  0
 13 14  1  0  0  0  0
  8 14  1  0  0  0  0
 14 15  1  0  0  0  0
 15 16  4  0  0  0  0
 16 17  4  0  0  0  0
 17 18  4  0  0  0  0
 18 19  4  0  0  0  0
 19 20  4  0  0  0  0
 15 20  4  0  0  0  0
 20 21  1  0  0  0  0
 13 22  1  0  0  0  0
 22 23  2  0  0  0  0
 22 24  1  0  0  0  0
 24 25  1  0  0  0  0
 25 26  1  0  0  0  0
 12 26  1  0  0  0  0
 25 27  1  0  0  0  0
 27 28  4  0  0  0  0
 28 29  4  0  0  0  0
 29 30  4  0  0  0  0
 30 31  1  0  0  0  0
 30 32  4  0  0  0  0
 32 33  4  0  0  0  0
 27 33  4  0  0  0  0
M  END

> <ChembankId>
3653037

> <SMILES>
COCCOC(=O)C1=C(C)NC2=C(C1c3ccccc3F)C(=O)CC(C2)c4ccc(Cl)cc4

> <InChI>


$$$$
3653038
  Marvin  11101114202D          

 21 22  0  0  0  0            999 V2000
    3.4656    1.1759    0.0000 C   0  0  0  0  0  0  0  0  0  0  0  0
    4.1801    0.7634    0.0000 C   0  0  0  0  0  0  0  0  0  0  0  0
    4.8946    1.1759    0.0000 C   0  0  0  0  0  0  0  0  0  0  0  0
    4.8946    2.0009    0.0000 C   0  0  0  0  0  0  0  0  0  0  0  0
    5.6091    2.4134    0.0000 C   0  0  0  0  0  0  0  0  0  0  0  0
    6.3235    2.0009    0.0000 C   0  0  0  0  0  0  0  0  0  0  0  0
    6.3235    1.1759    0.0000 C   0  0  0  0  0  0  0  0  0  0  0  0
    5.6091    0.7634    0.0000 C   0  0  0  0  0  0  0  0  0  0  0  0
    5.6091   -0.0616    0.0000 N   0  0  0  0  0  0  0  0  0  0  0  0
    4.8946   -0.4741    0.0000 C   0  0  0  0  0  0  0  0  0  0  0  0
    4.1801   -0.0616    0.0000 O   0  0  0  0  0  0  0  0  0  0  0  0
    4.8946   -1.2991    0.0000 C   0  0  0  0  0  0  0  0  0  0  0  0
    4.1801   -1.7116    0.0000 C   0  0  0  0  0  0  0  0  0  0  0  0
    4.1801   -2.5366    0.0000 C   0  0  0  0  0  0  0  0  0  0  0  0
    4.8476   -3.0215    0.0000 C   0  0  0  0  0  0  0  0  0  0  0  0
    4.5926   -3.8062    0.0000 C   0  0  0  0  0  0  0  0  0  0  0  0
    3.7676   -3.8062    0.0000 C   0  0  0  0  0  0  0  0  0  0  0  0
    3.5127   -3.0215    0.0000 S   0  0  0  0  0  0  0  0  0  0  0  0
    3.2827   -4.4736    0.0000 N   0  3  0  0  0  0  0  0  0  0  0  0
    3.6183   -5.2273    0.0000 O   0  0  0  0  0  0  0  0  0  0  0  0
    2.4622   -4.3874    0.0000 O   0  5  0  0  0  0  0  0  0  0  0  0
  1  2  1  0  0  0  0
  2  3  1  0  0  0  0
  3  4  4  0  0  0  0
  4  5  4  0  0  0  0
  5  6  4  0  0  0  0
  6  7  4  0  0  0  0
  7  8  4  0  0  0  0
  3  8  4  0  0  0  0
  8  9  1  0  0  0  0
  9 10  1  0  0  0  0
 10 11  2  0  0  0  0
 10 12  1  0  0  0  0
 12 13  2  0  0  0  0
 13 14  1  0  0  0  0
 14 15  4  0  0  0  0
 15 16  4  0  0  0  0
 16 17  4  0  0  0  0
 17 18  4  0  0  0  0
 14 18  4  0  0  0  0
 17 19  1  0  0  0  0
 19 20  2  0  0  0  0
 19 21  1  0  0  0  0
M  CHG  2  19   1  21  -1
M  END

> <ChembankId>
3653038

> <SMILES>
CCc1ccccc1NC(=O)/C=C/c2ccc(s2)[N+](=O)[O-]

> <InChI>


$$$$
3653040
  Marvin  11101114202D          

 24 26  0  0  0  0            999 V2000
    3.5600   -2.5888    0.0000 O   0  0  0  0  0  0  0  0  0  0  0  0
    2.8064   -2.9244    0.0000 P   0  0  0  0  0  0  0  0  0  0  0  0
    2.4708   -2.1707    0.0000 C   0  0  0  0  0  0  0  0  0  0  0  0
    2.9557   -1.5033    0.0000 C   0  0  0  0  0  0  0  0  0  0  0  0
    2.7008   -0.7187    0.0000 C   0  0  0  0  0  0  0  0  0  0  0  0
    3.3682   -0.2337    0.0000 S   0  0  0  0  0  0  0  0  0  0  0  0
    2.8162    0.3794    0.0000 O   0  0  0  0  0  0  0  0  0  0  0  0
    3.9203    0.3794    0.0000 O   0  0  0  0  0  0  0  0  0  0  0  0
    4.0357   -0.7187    0.0000 C   0  0  0  0  0  0  0  0  0  0  0  0
    3.7807   -1.5033    0.0000 C   0  0  0  0  0  0  0  0  0  0  0  0
    3.1419   -3.6781    0.0000 O   0  0  0  0  0  0  0  0  0  0  0  0
    2.6570   -4.3455    0.0000 C   0  0  0  0  0  0  0  0  0  0  0  0
    2.9926   -5.0992    0.0000 C   0  0  0  0  0  0  0  0  0  0  0  0
    2.5076   -5.7666    0.0000 C   0  0  0  0  0  0  0  0  0  0  0  0
    1.6872   -5.6804    0.0000 C   0  0  0  0  0  0  0  0  0  0  0  0
    1.3516   -4.9267    0.0000 C   0  0  0  0  0  0  0  0  0  0  0  0
    1.8365   -4.2593    0.0000 C   0  0  0  0  0  0  0  0  0  0  0  0
    2.0527   -3.2600    0.0000 O   0  0  0  0  0  0  0  0  0  0  0  0
    1.3852   -2.7750    0.0000 C   0  0  0  0  0  0  0  0  0  0  0  0
    0.6316   -3.1106    0.0000 C   0  0  0  0  0  0  0  0  0  0  0  0
   -0.0359   -2.6257    0.0000 C   0  0  0  0  0  0  0  0  0  0  0  0
    0.0504   -1.8052    0.0000 C   0  0  0  0  0  0  0  0  0  0  0  0
    0.8040   -1.4696    0.0000 C   0  0  0  0  0  0  0  0  0  0  0  0
    1.4715   -1.9546    0.0000 C   0  0  0  0  0  0  0  0  0  0  0  0
  1  2  2  0  0  0  0
  2  3  1  0  0  0  0
  3  4  1  0  0  0  0
  4  5  1  0  0  0  0
  5  6  1  0  0  0  0
  6  7  2  0  0  0  0
  6  8  2  0  0  0  0
  6  9  1  0  0  0  0
  9 10  2  0  0  0  0
  4 10  1  0  0  0  0
  2 11  1  0  0  0  0
 11 12  1  0  0  0  0
 12 13  4  0  0  0  0
 13 14  4  0  0  0  0
 14 15  4  0  0  0  0
 15 16  4  0  0  0  0
 16 17  4  0  0  0  0
 12 17  4  0  0  0  0
  2 18  1  0  0  0  0
 18 19  1  0  0  0  0
 19 20  4  0  0  0  0
 20 21  4  0  0  0  0
 21 22  4  0  0  0  0
 22 23  4  0  0  0  0
 23 24  4  0  0  0  0
 19 24  4  0  0  0  0
M  END

> <ChembankId>
3653040

> <SMILES>
O=P(CC1CS(=O)(=O)C=C1)(Oc2ccccc2)Oc3ccccc3

> <InChI>


$$$$
3653041
  Marvin  11101114202D          

 21 22  0  0  0  0            999 V2000
    0.7145   10.8911    0.0000 C   0  0  0  0  0  0  0  0  0  0  0  0
    1.4289   10.4786    0.0000 C   0  0  0  0  0  0  0  0  0  0  0  0
    1.4289    9.6536    0.0000 O   0  0  0  0  0  0  0  0  0  0  0  0
    2.1434    9.2411    0.0000 C   0  0  0  0  0  0  0  0  0  0  0  0
    2.8579    9.6536    0.0000 O   0  0  0  0  0  0  0  0  0  0  0  0
    2.1434    8.4161    0.0000 C   0  0  0  0  0  0  0  0  0  0  0  0
    2.8579    8.0036    0.0000 C   0  0  0  0  0  0  0  0  0  0  0  0
    2.8579    7.1786    0.0000 C   0  0  0  0  0  0  0  0  0  0  0  0
    2.1434    6.7661    0.0000 C   0  0  0  0  0  0  0  0  0  0  0  0
    2.1434    5.9411    0.0000 N   0  0  0  0  0  0  0  0  0  0  0  0
    1.4289    5.5286    0.0000 C   0  0  0  0  0  0  0  0  0  0  0  0
    1.4289    4.7036    0.0000 C   0  0  0  0  0  0  0  0  0  0  0  0
    2.0964    4.2187    0.0000 C   0  0  0  0  0  0  0  0  0  0  0  0
    1.8414    3.4340    0.0000 C   0  0  0  0  0  0  0  0  0  0  0  0
    1.0164    3.4340    0.0000 C   0  0  0  0  0  0  0  0  0  0  0  0
    0.7615    4.2187    0.0000 S   0  0  0  0  0  0  0  0  0  0  0  0
    0.5315    2.7666    0.0000 N   0  3  0  0  0  0  0  0  0  0  0  0
    0.8671    2.0129    0.0000 O   0  0  0  0  0  0  0  0  0  0  0  0
   -0.2890    2.8528    0.0000 O   0  5  0  0  0  0  0  0  0  0  0  0
    1.4289    7.1786    0.0000 C   0  0  0  0  0  0  0  0  0  0  0  0
    1.4289    8.0036    0.0000 C   0  0  0  0  0  0  0  0  0  0  0  0
  1  2  1  0  0  0  0
  2  3  1  0  0  0  0
  3  4  1  0  0  0  0
  4  5  2  0  0  0  0
  4  6  1  0  0  0  0
  6  7  4  0  0  0  0
  7  8  4  0  0  0  0
  8  9  4  0  0  0  0
 10  9  1  4  0  0  0
 10 11  2  0  0  0  0
 11 12  1  0  0  0  0
 12 13  4  0  0  0  0
 13 14  4  0  0  0  0
 14 15  4  0  0  0  0
 15 16  4  0  0  0  0
 12 16  4  0  0  0  0
 15 17  1  0  0  0  0
 17 18  2  0  0  0  0
 17 19  1  0  0  0  0
  9 20  4  0  0  0  0
 20 21  4  0  0  0  0
  6 21  4  0  0  0  0
M  CHG  2  17   1  19  -1
M  END

> <ChembankId>
3653041

> <SMILES>
CCOC(=O)c1ccc(N=Cc2ccc(s2)[N+](=O)[O-])cc1

> <InChI>


$$$$
3653042
  Marvin  11101114202D          

 26 29  0  0  0  0            999 V2000
    6.8490   -4.0252    0.0000 C   0  0  0  0  0  0  0  0  0  0  0  0
    6.5941   -3.2406    0.0000 C   0  0  0  0  0  0  0  0  0  0  0  0
    5.7871   -3.0690    0.0000 C   0  0  0  0  0  0  0  0  0  0  0  0
    5.5322   -2.2844    0.0000 C   0  0  0  0  0  0  0  0  0  0  0  0
    4.7252   -2.1129    0.0000 N   0  0  0  0  0  0  0  0  0  0  0  0
    4.1732   -2.7260    0.0000 C   0  0  0  0  0  0  0  0  0  0  0  0
    4.4281   -3.5106    0.0000 O   0  0  0  0  0  0  0  0  0  0  0  0
    3.3662   -2.5545    0.0000 N   0  0  0  0  0  0  0  0  0  0  0  0
    3.1113   -1.7698    0.0000 C   0  0  0  0  0  0  0  0  0  0  0  0
    2.3043   -1.5983    0.0000 O   0  0  0  0  0  0  0  0  0  0  0  0
    3.6633   -1.1567    0.0000 C   0  0  0  0  0  0  0  0  0  0  0  0
    3.4084   -0.3721    0.0000 C   0  0  0  0  0  0  0  0  0  0  0  0
    3.9604    0.2410    0.0000 N   0  0  0  0  0  0  0  0  0  0  0  0
    3.7054    1.0256    0.0000 C   0  0  0  0  0  0  0  0  0  0  0  0
    2.8985    1.1971    0.0000 C   0  0  0  0  0  0  0  0  0  0  0  0
    2.3464    0.5840    0.0000 C   0  0  0  0  0  0  0  0  0  0  0  0
    2.6014   -0.2006    0.0000 C   0  0  0  0  0  0  0  0  0  0  0  0
    1.9339   -0.6855    0.0000 N   0  0  0  0  0  0  0  0  0  0  0  0
    1.2665   -0.2006    0.0000 C   0  0  0  0  0  0  0  0  0  0  0  0
    0.4595   -0.3721    0.0000 C   0  0  0  0  0  0  0  0  0  0  0  0
   -0.0925    0.2410    0.0000 C   0  0  0  0  0  0  0  0  0  0  0  0
    0.1624    1.0256    0.0000 C   0  0  0  0  0  0  0  0  0  0  0  0
    0.9694    1.1971    0.0000 C   0  0  0  0  0  0  0  0  0  0  0  0
    1.5214    0.5840    0.0000 C   0  0  0  0  0  0  0  0  0  0  0  0
    4.4703   -1.3283    0.0000 C   0  0  0  0  0  0  0  0  0  0  0  0
    5.0223   -0.7152    0.0000 O   0  0  0  0  0  0  0  0  0  0  0  0
  1  2  1  0  0  0  0
  2  3  1  0  0  0  0
  3  4  1  0  0  0  0
  4  5  1  0  0  0  0
  5  6  4  0  0  0  0
  6  7  2  0  0  0  0
  6  8  4  0  0  0  0
  8  9  4  0  0  0  0
  9 10  1  0  0  0  0
  9 11  4  0  0  0  0
 11 12  1  0  0  0  0
 12 13  1  0  0  0  0
 13 14  1  0  0  0  0
 14 15  1  0  0  0  0
 15 16  1  0  0  0  0
 16 17  4  0  0  0  0
 12 17  1  0  0  0  0
 17 18  4  0  0  0  0
 18 19  4  0  0  0  0
 19 20  4  0  0  0  0
 20 21  4  0  0  0  0
 21 22  4  0  0  0  0
 22 23  4  0  0  0  0
 23 24  4  0  0  0  0
 16 24  4  0  0  0  0
 19 24  4  0  0  0  0
 11 25  4  0  0  0  0
  5 25  4  0  0  0  0
 25 26  2  0  0  0  0
M  STY  2   1 DAT   2 DAT
M  SAL   1  1   8
M  SDT   1 MRV_IMPLICIT_H                                        
M  SDD   1     0.0000    0.0000    DR    ALL  0       0  
M  SED   1 IMPL_H1
M  SAL   2  1  18
M  SDT   2 MRV_IMPLICIT_H                                        
M  SDD   2     0.0000    0.0000    DR    ALL  0       0  
M  SED   2 IMPL_H1
M  END

> <ChembankId>
3653042

> <SMILES>
CCCCn1c(=O)[nH]c(O)c(C2NCCc3c2[nH]c4ccccc34)c1=O

> <InChI>


$$$$
3653043
  Marvin  11101114202D          

 24 27  0  0  0  0            999 V2000
    2.8142   -3.1676    0.0000 C   0  0  0  0  0  0  0  0  0  0  0  0
    3.3662   -2.5545    0.0000 N   0  0  0  0  0  0  0  0  0  0  0  0
    3.1113   -1.7698    0.0000 C   0  0  0  0  0  0  0  0  0  0  0  0
    2.3043   -1.5983    0.0000 O   0  0  0  0  0  0  0  0  0  0  0  0
    3.6633   -1.1567    0.0000 C   0  0  0  0  0  0  0  0  0  0  0  0
    3.4084   -0.3721    0.0000 C   0  0  0  0  0  0  0  0  0  0  0  0
    3.9604    0.2410    0.0000 N   0  0  0  0  0  0  0  0  0  0  0  0
    3.7054    1.0256    0.0000 C   0  0  0  0  0  0  0  0  0  0  0  0
    2.8985    1.1971    0.0000 C   0  0  0  0  0  0  0  0  0  0  0  0
    2.3464    0.5840    0.0000 C   0  0  0  0  0  0  0  0  0  0  0  0
    2.6014   -0.2006    0.0000 C   0  0  0  0  0  0  0  0  0  0  0  0
    1.9339   -0.6855    0.0000 N   0  0  0  0  0  0  0  0  0  0  0  0
    1.2665   -0.2006    0.0000 C   0  0  0  0  0  0  0  0  0  0  0  0
    0.4595   -0.3721    0.0000 C   0  0  0  0  0  0  0  0  0  0  0  0
   -0.0925    0.2410    0.0000 C   0  0  0  0  0  0  0  0  0  0  0  0
    0.1624    1.0256    0.0000 C   0  0  0  0  0  0  0  0  0  0  0  0
    0.9694    1.1971    0.0000 C   0  0  0  0  0  0  0  0  0  0  0  0
    1.5214    0.5840    0.0000 C   0  0  0  0  0  0  0  0  0  0  0  0
    4.4703   -1.3283    0.0000 C   0  0  0  0  0  0  0  0  0  0  0  0
    5.0223   -0.7152    0.0000 O   0  0  0  0  0  0  0  0  0  0  0  0
    4.7252   -2.1129    0.0000 N   0  0  0  0  0  0  0  0  0  0  0  0
    5.5322   -2.2844    0.0000 C   0  0  0  0  0  0  0  0  0  0  0  0
    4.1732   -2.7260    0.0000 C   0  0  0  0  0  0  0  0  0  0  0  0
    4.4281   -3.5106    0.0000 O   0  0  0  0  0  0  0  0  0  0  0  0
  1  2  1  0  0  0  0
  2  3  4  0  0  0  0
  3  4  1  0  0  0  0
  3  5  4  0  0  0  0
  5  6  1  0  0  0  0
  6  7  1  0  0  0  0
  7  8  1  0  0  0  0
  8  9  1  0  0  0  0
  9 10  1  0  0  0  0
 10 11  4  0  0  0  0
  6 11  1  0  0  0  0
 11 12  4  0  0  0  0
 12 13  4  0  0  0  0
 13 14  4  0  0  0  0
 14 15  4  0  0  0  0
 15 16  4  0  0  0  0
 16 17  4  0  0  0  0
 17 18  4  0  0  0  0
 10 18  4  0  0  0  0
 13 18  4  0  0  0  0
  5 19  4  0  0  0  0
 19 20  2  0  0  0  0
 19 21  4  0  0  0  0
 21 22  1  0  0  0  0
 21 23  4  0  0  0  0
  2 23  4  0  0  0  0
 23 24  2  0  0  0  0
M  STY  1   1 DAT
M  SAL   1  1  12
M  SDT   1 MRV_IMPLICIT_H                                        
M  SDD   1     0.0000    0.0000    DR    ALL  0       0  
M  SED   1 IMPL_H1
M  END

> <ChembankId>
3653043

> <SMILES>
Cn1c(O)c(C2NCCc3c2[nH]c4ccccc34)c(=O)n(C)c1=O

> <InChI>


$$$$
3653044
  Marvin  11101114202D          

 18 20  0  0  0  0            999 V2000
    2.8579    2.4750    0.0000 C   0  0  0  0  0  0  0  0  0  0  0  0
    2.1434    2.0625    0.0000 O   0  0  0  0  0  0  0  0  0  0  0  0
    2.1434    1.2375    0.0000 C   0  0  0  0  0  0  0  0  0  0  0  0
    2.8579    0.8250    0.0000 C   0  0  0  0  0  0  0  0  0  0  0  0
    3.6425    1.0799    0.0000 O   0  0  0  0  0  0  0  0  0  0  0  0
    4.1274    0.4125    0.0000 C   0  0  0  0  0  0  0  0  0  0  0  0
    3.6425   -0.2549    0.0000 O   0  0  0  0  0  0  0  0  0  0  0  0
    2.8579    0.0000    0.0000 C   0  0  0  0  0  0  0  0  0  0  0  0
    2.1434   -0.4125    0.0000 C   0  0  0  0  0  0  0  0  0  0  0  0
    1.4289    0.0000    0.0000 C   0  0  0  0  0  0  0  0  0  0  0  0
    0.7145   -0.4125    0.0000 C   0  0  0  0  0  0  0  0  0  0  0  0
    0.0000    0.0000    0.0000 C   0  0  0  0  0  0  0  0  0  0  0  0
    0.0000    0.8250    0.0000 N   0  0  0  0  0  0  0  0  0  0  0  0
   -0.7145    1.2375    0.0000 C   0  0  0  0  0  0  0  0  0  0  0  0
    0.7145    1.2375    0.0000 C   0  0  0  0  0  0  0  0  0  0  0  0
    0.7145    2.0625    0.0000 C   0  0  0  0  0  0  0  0  0  0  0  0
    1.4289    2.4750    0.0000 N   0  0  0  0  0  0  0  0  0  0  0  0
    1.4289    0.8250    0.0000 C   0  0  0  0  0  0  0  0  0  0  0  0
  1  2  1  0  0  0  0
  2  3  1  0  0  0  0
  3  4  4  0  0  0  0
  4  5  1  0  0  0  0
  5  6  1  0  0  0  0
  6  7  1  0  0  0  0
  7  8  1  0  0  0  0
  4  8  4  0  0  0  0
  8  9  4  0  0  0  0
  9 10  4  0  0  0  0
 10 11  1  0  0  0  0
 11 12  1  0  0  0  0
 12 13  1  0  0  0  0
 13 14  1  0  0  0  0
 13 15  1  0  0  0  0
 15 16  1  0  0  0  0
 16 17  1  0  0  0  0
 15 18  1  0  0  0  0
  3 18  4  0  0  0  0
 10 18  4  0  0  0  0
M  END

> <ChembankId>
3653044

> <SMILES>
COc1c2OCOc2cc3CCN(C)C(CN)c13

> <InChI>


$$$$
3653045
  Marvin  11101114202D          

 22 25  0  0  0  0            999 V2000
    2.6062   -2.1030    0.0000 O   0  0  0  0  0  0  0  0  0  0  0  0
    2.1937   -2.8174    0.0000 N   0  0  0  0  0  0  0  0  0  0  0  0
    1.3687   -2.8174    0.0000 C   0  0  0  0  0  0  0  0  0  0  0  0
    0.8838   -3.4849    0.0000 C   0  0  0  0  0  0  0  0  0  0  0  0
    1.0553   -4.2919    0.0000 C   0  0  0  0  0  0  0  0  0  0  0  0
    0.4422   -4.8439    0.0000 C   0  0  0  0  0  0  0  0  0  0  0  0
   -0.3424   -4.5889    0.0000 C   0  0  0  0  0  0  0  0  0  0  0  0
   -0.5139   -3.7820    0.0000 C   0  0  0  0  0  0  0  0  0  0  0  0
    0.0992   -3.2299    0.0000 C   0  0  0  0  0  0  0  0  0  0  0  0
    0.0992   -2.4049    0.0000 N   0  0  0  0  0  0  0  0  0  0  0  0
    0.8838   -2.1500    0.0000 C   0  0  0  0  0  0  0  0  0  0  0  0
    1.1387   -1.3654    0.0000 C   0  0  0  0  0  0  0  0  0  0  0  0
    0.6538   -0.6979    0.0000 C   0  0  0  0  0  0  0  0  0  0  0  0
   -0.1712   -0.6979    0.0000 O   0  0  0  0  0  0  0  0  0  0  0  0
    1.1387   -0.0305    0.0000 N   0  0  0  0  0  0  0  0  0  0  0  0
    1.9233   -0.2854    0.0000 C   0  0  0  0  0  0  0  0  0  0  0  0
    2.6378    0.1271    0.0000 C   0  0  0  0  0  0  0  0  0  0  0  0
    3.3523   -0.2854    0.0000 C   0  0  0  0  0  0  0  0  0  0  0  0
    4.0668    0.1271    0.0000 Br  0  0  0  0  0  0  0  0  0  0  0  0
    3.3523   -1.1104    0.0000 C   0  0  0  0  0  0  0  0  0  0  0  0
    2.6378   -1.5229    0.0000 C   0  0  0  0  0  0  0  0  0  0  0  0
    1.9233   -1.1104    0.0000 C   0  0  0  0  0  0  0  0  0  0  0  0
  1  2  1  0  0  0  0
  2  3  1  0  0  0  0
  3  4  2  0  0  0  0
  4  5  4  0  0  0  0
  5  6  4  0  0  0  0
  6  7  4  0  0  0  0
  7  8  4  0  0  0  0
  8  9  4  0  0  0  0
  4  9  4  0  0  0  0
  9 10  2  0  0  0  0
 11 10  1  4  0  0  0
  3 11  1  0  0  0  0
 11 12  2  0  0  0  0
 12 13  1  0  0  0  0
 13 14  2  0  0  0  0
 13 15  1  0  0  0  0
 15 16  1  0  0  0  0
 16 17  4  0  0  0  0
 17 18  4  0  0  0  0
 18 19  1  0  0  0  0
 18 20  4  0  0  0  0
 20 21  4  0  0  0  0
 21 22  4  0  0  0  0
 12 22  1  0  0  0  0
 16 22  4  0  0  0  0
M  END

> <ChembankId>
3653045

> <SMILES>
ONC1=c2ccccc2=NC1=C3C(=O)Nc4cc(Br)ccc34

> <InChI>


$$$$
3653046
  Marvin  11101114202D          

 35 38  0  0  0  0            999 V2000
    4.1801    2.2902    0.0000 O   0  0  0  0  0  0  0  0  0  0  0  0
    3.4656    1.8777    0.0000 C   0  0  0  0  0  0  0  0  0  0  0  0
    2.7512    2.2902    0.0000 O   0  0  0  0  0  0  0  0  0  0  0  0
    3.4656    1.0527    0.0000 C   0  0  0  0  0  0  0  0  0  0  0  0
    2.7512    0.6402    0.0000 C   0  0  0  0  0  0  0  0  0  0  0  0
    2.7512   -0.1848    0.0000 C   0  0  0  0  0  0  0  0  0  0  0  0
    2.0367   -0.5973    0.0000 C   0  0  0  0  0  0  0  0  0  0  0  0
    2.0367   -1.4223    0.0000 C   0  0  0  0  0  0  0  0  0  0  0  0
    2.7512   -1.8348    0.0000 C   0  0  0  0  0  0  0  0  0  0  0  0
    2.7512   -2.6598    0.0000 C   0  0  0  0  0  0  0  0  0  0  0  0
    3.4186   -3.1447    0.0000 C   0  0  0  0  0  0  0  0  0  0  0  0
    3.1637   -3.9294    0.0000 C   0  0  0  0  0  0  0  0  0  0  0  0
    2.3387   -3.9294    0.0000 C   0  0  0  0  0  0  0  0  0  0  0  0
    1.8538   -4.5968    0.0000 O   0  0  0  0  0  0  0  0  0  0  0  0
    2.0837   -3.1447    0.0000 C   0  0  0  0  0  0  0  0  0  0  0  0
    1.2991   -2.8898    0.0000 N   0  0  0  0  0  0  0  0  0  0  0  0
    0.6860   -3.4418    0.0000 C   0  0  0  0  0  0  0  0  0  0  0  0
   -0.0986   -3.1869    0.0000 C   0  0  0  0  0  0  0  0  0  0  0  0
   -0.2701   -2.3799    0.0000 O   0  0  0  0  0  0  0  0  0  0  0  0
    0.3430   -1.8279    0.0000 C   0  0  0  0  0  0  0  0  0  0  0  0
    1.1276   -2.0828    0.0000 C   0  0  0  0  0  0  0  0  0  0  0  0
    4.2032   -2.8898    0.0000 O   0  0  0  0  0  0  0  0  0  0  0  0
    4.8163   -3.4418    0.0000 C   0  0  0  0  0  0  0  0  0  0  0  0
    4.6448   -4.2488    0.0000 C   0  0  0  0  0  0  0  0  0  0  0  0
    5.2579   -4.8008    0.0000 C   0  0  0  0  0  0  0  0  0  0  0  0
    5.0864   -5.6078    0.0000 C   0  0  0  0  0  0  0  0  0  0  0  0
    4.3018   -5.8628    0.0000 C   0  0  0  0  0  0  0  0  0  0  0  0
    3.6887   -5.3107    0.0000 C   0  0  0  0  0  0  0  0  0  0  0  0
    3.8602   -4.5037    0.0000 C   0  0  0  0  0  0  0  0  0  0  0  0
    4.1302   -6.6697    0.0000 C   0  0  0  0  0  0  0  0  0  0  0  0
    4.7433   -7.2218    0.0000 C   0  0  0  0  0  0  0  0  0  0  0  0
    4.5718   -8.0287    0.0000 C   0  0  0  0  0  0  0  0  0  0  0  0
    3.7872   -8.2837    0.0000 C   0  0  0  0  0  0  0  0  0  0  0  0
    3.1741   -7.7316    0.0000 C   0  0  0  0  0  0  0  0  0  0  0  0
    3.3456   -6.9247    0.0000 C   0  0  0  0  0  0  0  0  0  0  0  0
  1  2  1  0  0  0  0
  2  3  2  0  0  0  0
  2  4  1  0  0  0  0
  4  5  1  0  0  0  0
  6  5  1  4  0  0  0
  6  7  2  0  0  0  0
  7  8  1  0  0  0  0
  8  9  1  0  0  0  0
  9 10  1  0  0  0  0
 10 11  1  0  0  0  0
 11 12  1  0  0  0  0
 12 13  1  0  0  0  0
 13 14  2  0  0  0  0
 13 15  1  0  0  0  0
 10 15  1  0  0  0  0
 15 16  1  0  0  0  0
 16 17  1  0  0  0  0
 17 18  1  0  0  0  0
 18 19  1  0  0  0  0
 19 20  1  0  0  0  0
 20 21  1  0  0  0  0
 16 21  1  0  0  0  0
 11 22  1  0  0  0  0
 22 23  1  0  0  0  0
 23 24  1  0  0  0  0
 24 25  4  0  0  0  0
 25 26  4  0  0  0  0
 26 27  4  0  0  0  0
 27 28  4  0  0  0  0
 28 29  4  0  0  0  0
 24 29  4  0  0  0  0
 27 30  1  0  0  0  0
 30 31  4  0  0  0  0
 31 32  4  0  0  0  0
 32 33  4  0  0  0  0
 33 34  4  0  0  0  0
 34 35  4  0  0  0  0
 30 35  4  0  0  0  0
M  END

> <ChembankId>
3653046

> <SMILES>
OC(=O)CCC=CCCC1C(CC(=O)C1N2CCOCC2)OCc3ccc(cc3)c4ccccc4

> <InChI>


$$$$
1986
  Marvin  11101114202D          

 24 25  0  0  0  0            999 V2000
   -1.4289    0.0000    0.0000 C   0  0  0  0  0  0  0  0  0  0  0  0
   -0.7145   -0.4125    0.0000 C   0  0  0  0  0  0  0  0  0  0  0  0
   -0.7145   -1.2375    0.0000 O   0  0  0  0  0  0  0  0  0  0  0  0
    0.0000   -1.6500    0.0000 C   0  0  0  0  0  0  0  0  0  0  0  0
    0.7145   -1.2375    0.0000 O   0  0  0  0  0  0  0  0  0  0  0  0
    0.0000   -2.4750    0.0000 C   0  0  0  0  0  0  0  0  0  0  0  0
    0.7145   -2.8875    0.0000 C   0  0  0  0  0  0  0  0  0  0  0  0
    0.7145   -3.7125    0.0000 C   0  0  0  0  0  0  0  0  0  0  0  0
    0.0000   -4.1250    0.0000 C   0  0  0  0  0  0  0  0  0  0  0  0
    0.0000   -4.9500    0.0000 N   0  0  0  0  0  0  0  0  0  0  0  0
   -0.7145   -5.3625    0.0000 N   0  0  0  0  0  0  0  0  0  0  0  0
   -0.7145   -6.1875    0.0000 C   0  0  0  0  0  0  0  0  0  0  0  0
    0.0000   -6.6000    0.0000 C   0  0  0  0  0  0  0  0  0  0  0  0
   -0.0000   -7.4250    0.0000 C   0  0  0  0  0  0  0  0  0  0  0  0
   -0.7145   -7.8375    0.0000 C   0  0  0  0  0  0  0  0  0  0  0  0
   -0.7145   -8.6625    0.0000 O   0  0  0  0  0  0  0  0  0  0  0  0
   -1.4289   -7.4250    0.0000 C   0  0  0  0  0  0  0  0  0  0  0  0
   -2.1434   -7.8375    0.0000 C   0  0  0  0  0  0  0  0  0  0  0  0
   -2.1434   -8.6625    0.0000 C   0  0  0  0  0  0  0  0  0  0  0  0
   -1.4289   -9.0750    0.0000 O   0  0  0  0  0  0  0  0  0  0  0  0
   -2.8579   -9.0750    0.0000 O   0  0  0  0  0  0  0  0  0  0  0  0
   -1.4289   -6.6000    0.0000 C   0  0  0  0  0  0  0  0  0  0  0  0
   -0.7145   -3.7125    0.0000 C   0  0  0  0  0  0  0  0  0  0  0  0
   -0.7145   -2.8875    0.0000 C   0  0  0  0  0  0  0  0  0  0  0  0
  1  2  1  0  0  0  0
  2  3  1  0  0  0  0
  3  4  1  0  0  0  0
  4  5  2  0  0  0  0
  4  6  1  0  0  0  0
  6  7  4  0  0  0  0
  7  8  4  0  0  0  0
  8  9  4  0  0  0  0
 10  9  1  4  0  0  0
 10 11  2  0  0  0  0
 11 12  1  0  0  0  0
 12 13  4  0  0  0  0
 13 14  4  0  0  0  0
 14 15  4  0  0  0  0
 15 16  1  0  0  0  0
 15 17  4  0  0  0  0
 17 18  1  0  0  0  0
 18 19  1  0  0  0  0
 19 20  2  0  0  0  0
 19 21  1  0  0  0  0
 17 22  4  0  0  0  0
 12 22  4  0  0  0  0
  9 23  4  0  0  0  0
 23 24  4  0  0  0  0
  6 24  4  0  0  0  0
M  END

> <ChembankId>
1986

> <SMILES>
CCOC(=O)c1ccc(N=Nc2ccc(O)c(CC(=O)O)c2)cc1

> <InChI>


$$$$
3653047
  Marvin  11101114202D          

 26 26  0  0  0  0            999 V2000
   -5.6453   -1.3455    0.0000 C   0  0  0  0  0  0  0  0  0  0  0  0
   -4.9308   -0.9330    0.0000 C   0  0  0  0  0  0  0  0  0  0  0  0
   -4.2163   -1.3455    0.0000 C   0  0  0  0  0  0  0  0  0  0  0  0
   -3.5018   -0.9330    0.0000 C   0  0  0  0  0  0  0  0  0  0  0  0
   -2.7874   -1.3455    0.0000 C   0  0  0  0  0  0  0  0  0  0  0  0
   -2.0729   -0.9330    0.0000 C   0  0  0  0  0  0  0  0  0  0  0  0
   -1.6604   -1.6475    0.0000 C   0  0  0  0  0  0  0  0  0  0  0  0
   -2.4854   -0.2185    0.0000 O   0  0  0  0  0  0  0  0  0  0  0  0
   -1.3584   -0.5205    0.0000 C   0  0  0  0  0  0  0  0  0  0  0  0
   -0.6440   -0.9330    0.0000 C   0  0  0  0  0  0  0  0  0  0  0  0
    0.0705   -0.5205    0.0000 C   0  0  0  0  0  0  0  0  0  0  0  0
    0.1568    0.3000    0.0000 C   0  0  0  0  0  0  0  0  0  0  0  0
   -0.4563    0.8520    0.0000 O   0  0  0  0  0  0  0  0  0  0  0  0
    0.9637    0.4715    0.0000 C   0  0  0  0  0  0  0  0  0  0  0  0
    1.3762   -0.2430    0.0000 C   0  0  0  0  0  0  0  0  0  0  0  0
    2.1967   -0.3292    0.0000 O   0  0  0  0  0  0  0  0  0  0  0  0
    0.8242   -0.8561    0.0000 C   0  0  0  0  0  0  0  0  0  0  0  0
    0.9957   -1.6630    0.0000 C   0  0  0  0  0  0  0  0  0  0  0  0
    1.7803   -1.9180    0.0000 C   0  0  0  0  0  0  0  0  0  0  0  0
    1.9519   -2.7250    0.0000 C   0  0  0  0  0  0  0  0  0  0  0  0
    2.7365   -2.9799    0.0000 C   0  0  0  0  0  0  0  0  0  0  0  0
    2.9080   -3.7869    0.0000 C   0  0  0  0  0  0  0  0  0  0  0  0
    3.6926   -4.0418    0.0000 C   0  0  0  0  0  0  0  0  0  0  0  0
    3.8642   -4.8488    0.0000 C   0  0  0  0  0  0  0  0  0  0  0  0
    4.6488   -5.1037    0.0000 O   0  0  0  0  0  0  0  0  0  0  0  0
    3.2511   -5.4008    0.0000 O   0  0  0  0  0  0  0  0  0  0  0  0
  1  2  1  0  0  0  0
  2  3  1  0  0  0  0
  3  4  1  0  0  0  0
  4  5  1  0  0  0  0
  5  6  1  0  0  0  0
  6  7  1  0  0  0  0
  6  8  1  0  0  0  0
  9  6  1  4  0  0  0
  9 10  2  0  0  0  0
 10 11  1  0  0  0  0
 11 12  1  0  0  0  0
 12 13  1  0  0  0  0
 12 14  1  0  0  0  0
 14 15  1  0  0  0  0
 15 16  2  0  0  0  0
 15 17  1  0  0  0  0
 11 17  1  0  0  0  0
 17 18  1  0  0  0  0
 19 18  1  4  0  0  0
 19 20  2  0  0  0  0
 20 21  1  0  0  0  0
 21 22  1  0  0  0  0
 22 23  1  0  0  0  0
 23 24  1  0  0  0  0
 24 25  2  0  0  0  0
 24 26  1  0  0  0  0
M  END

> <ChembankId>
3653047

> <SMILES>
CCCCCC(C)(O)C=CC1C(O)CC(=O)C1CC=CCCCC(=O)O

> <InChI>


$$$$
3653048
  Marvin  11101114202D          

 27 27  0  0  0  0            999 V2000
   -5.5891   -0.7070    0.0000 C   0  0  0  0  0  0  0  0  0  0  0  0
   -5.0170   -0.1125    0.0000 C   0  0  0  0  0  0  0  0  0  0  0  0
   -4.2162   -0.3107    0.0000 C   0  0  0  0  0  0  0  0  0  0  0  0
   -3.6441    0.2838    0.0000 C   0  0  0  0  0  0  0  0  0  0  0  0
   -2.8433    0.0856    0.0000 C   0  0  0  0  0  0  0  0  0  0  0  0
   -3.0414   -0.7152    0.0000 C   0  0  0  0  0  0  0  0  0  0  0  0
   -2.6451    0.8865    0.0000 C   0  0  0  0  0  0  0  0  0  0  0  0
   -2.0424   -0.1125    0.0000 C   0  0  0  0  0  0  0  0  0  0  0  0
   -1.8136   -0.9052    0.0000 O   0  0  0  0  0  0  0  0  0  0  0  0
   -1.4704    0.4819    0.0000 C   0  0  0  0  0  0  0  0  0  0  0  0
   -0.6696    0.2838    0.0000 C   0  0  0  0  0  0  0  0  0  0  0  0
   -0.0975    0.8783    0.0000 C   0  0  0  0  0  0  0  0  0  0  0  0
   -0.2422    1.6905    0.0000 C   0  0  0  0  0  0  0  0  0  0  0  0
   -0.9844    2.0508    0.0000 O   0  0  0  0  0  0  0  0  0  0  0  0
    0.4855    2.0791    0.0000 C   0  0  0  0  0  0  0  0  0  0  0  0
    1.0800    1.5070    0.0000 C   0  0  0  0  0  0  0  0  0  0  0  0
    1.8922    1.6517    0.0000 C   0  0  0  0  0  0  0  0  0  0  0  0
    0.7197    0.7649    0.0000 C   0  0  0  0  0  0  0  0  0  0  0  0
    1.1083    0.0372    0.0000 C   0  0  0  0  0  0  0  0  0  0  0  0
    1.9328    0.0098    0.0000 C   0  0  0  0  0  0  0  0  0  0  0  0
    2.3214   -0.7179    0.0000 C   0  0  0  0  0  0  0  0  0  0  0  0
    3.1460   -0.7452    0.0000 C   0  0  0  0  0  0  0  0  0  0  0  0
    3.5346   -1.4730    0.0000 C   0  0  0  0  0  0  0  0  0  0  0  0
    4.3591   -1.5003    0.0000 C   0  0  0  0  0  0  0  0  0  0  0  0
    4.7477   -2.2280    0.0000 C   0  0  0  0  0  0  0  0  0  0  0  0
    5.5723   -2.2554    0.0000 O   0  0  0  0  0  0  0  0  0  0  0  0
    4.3118   -2.9285    0.0000 O   0  0  0  0  0  0  0  0  0  0  0  0
  1  2  1  0  0  0  0
  2  3  1  0  0  0  0
  3  4  1  0  0  0  0
  4  5  1  0  0  0  0
  5  6  1  0  0  0  0
  5  7  1  0  0  0  0
  5  8  1  0  0  0  0
  8  9  1  0  0  0  0
 10  8  1  4  0  0  0
 10 11  2  0  0  0  0
 11 12  1  0  0  0  0
 12 13  1  0  0  0  0
 13 14  1  0  0  0  0
 13 15  1  0  0  0  0
 15 16  1  0  0  0  0
 16 17  2  0  0  0  0
 16 18  1  0  0  0  0
 12 18  1  0  0  0  0
 18 19  1  0  0  0  0
 20 19  1  4  0  0  0
 20 21  2  0  0  0  0
 21 22  1  0  0  0  0
 22 23  1  0  0  0  0
 23 24  1  0  0  0  0
 24 25  1  0  0  0  0
 25 26  2  0  0  0  0
 25 27  1  0  0  0  0
M  END

> <ChembankId>
3653048

> <SMILES>
CCCCC(C)(C)C(O)C=CC1C(O)CC(=C)C1CC=CCCCC(=O)O

> <InChI>


$$$$
3653049
  Marvin  11101114202D          

 27 28  0  0  0  0            999 V2000
   -9.8026   -6.8806    0.0000 O   0  0  0  0  0  0  0  0  0  0  0  0
  -10.4157   -6.3286    0.0000 C   0  0  0  0  0  0  0  0  0  0  0  0
  -11.2003   -6.5836    0.0000 C   0  0  0  0  0  0  0  0  0  0  0  0
  -11.3718   -7.3905    0.0000 C   0  0  0  0  0  0  0  0  0  0  0  0
  -10.7587   -7.9426    0.0000 C   0  0  0  0  0  0  0  0  0  0  0  0
  -10.9303   -8.7495    0.0000 C   0  0  0  0  0  0  0  0  0  0  0  0
  -11.7149   -9.0045    0.0000 C   0  0  0  0  0  0  0  0  0  0  0  0
  -12.3280   -8.4524    0.0000 C   0  0  0  0  0  0  0  0  0  0  0  0
  -12.1564   -7.6455    0.0000 C   0  0  0  0  0  0  0  0  0  0  0  0
  -10.2441   -5.5216    0.0000 C   0  0  0  0  0  0  0  0  0  0  0  0
   -9.4595   -5.2667    0.0000 C   0  0  0  0  0  0  0  0  0  0  0  0
   -9.2880   -4.4597    0.0000 C   0  0  0  0  0  0  0  0  0  0  0  0
   -9.8400   -3.8466    0.0000 C   0  0  0  0  0  0  0  0  0  0  0  0
  -10.6605   -3.9329    0.0000 O   0  0  0  0  0  0  0  0  0  0  0  0
   -9.4275   -3.1322    0.0000 C   0  0  0  0  0  0  0  0  0  0  0  0
   -8.6206   -3.3037    0.0000 C   0  0  0  0  0  0  0  0  0  0  0  0
   -8.0075   -2.7517    0.0000 O   0  0  0  0  0  0  0  0  0  0  0  0
   -8.5343   -4.1242    0.0000 C   0  0  0  0  0  0  0  0  0  0  0  0
   -7.8198   -4.5367    0.0000 C   0  0  0  0  0  0  0  0  0  0  0  0
   -7.1054   -4.1242    0.0000 C   0  0  0  0  0  0  0  0  0  0  0  0
   -6.3909   -4.5367    0.0000 C   0  0  0  0  0  0  0  0  0  0  0  0
   -5.6764   -4.1242    0.0000 C   0  0  0  0  0  0  0  0  0  0  0  0
   -4.9620   -4.5367    0.0000 C   0  0  0  0  0  0  0  0  0  0  0  0
   -4.2475   -4.1242    0.0000 C   0  0  0  0  0  0  0  0  0  0  0  0
   -3.5330   -4.5367    0.0000 C   0  0  0  0  0  0  0  0  0  0  0  0
   -2.8186   -4.1242    0.0000 O   0  0  0  0  0  0  0  0  0  0  0  0
   -3.5330   -5.3617    0.0000 O   0  0  0  0  0  0  0  0  0  0  0  0
  1  2  1  0  0  0  0
  2  3  1  0  0  0  0
  3  4  1  0  0  0  0
  4  5  4  0  0  0  0
  5  6  4  0  0  0  0
  6  7  4  0  0  0  0
  7  8  4  0  0  0  0
  8  9  4  0  0  0  0
  4  9  4  0  0  0  0
 10  2  1  4  0  0  0
 10 11  2  0  0  0  0
 11 12  1  0  0  0  0
 12 13  1  0  0  0  0
 13 14  1  0  0  0  0
 13 15  1  0  0  0  0
 15 16  1  0  0  0  0
 16 17  2  0  0  0  0
 16 18  1  0  0  0  0
 12 18  1  0  0  0  0
 18 19  1  0  0  0  0
 20 19  1  4  0  0  0
 20 21  2  0  0  0  0
 21 22  1  0  0  0  0
 22 23  1  0  0  0  0
 23 24  1  0  0  0  0
 24 25  1  0  0  0  0
 25 26  2  0  0  0  0
 25 27  1  0  0  0  0
M  END

> <ChembankId>
3653049

> <SMILES>
OC(Cc1ccccc1)C=CC2C(O)CC(=O)C2CC=CCCCC(=O)O

> <InChI>


$$$$
3653050
  Marvin  11101114202D          

 26 26  0  0  0  0            999 V2000
   -5.5891   -0.7070    0.0000 C   0  0  0  0  0  0  0  0  0  0  0  0
   -5.0170   -0.1125    0.0000 C   0  0  0  0  0  0  0  0  0  0  0  0
   -4.2162   -0.3107    0.0000 C   0  0  0  0  0  0  0  0  0  0  0  0
   -3.6441    0.2838    0.0000 C   0  0  0  0  0  0  0  0  0  0  0  0
   -2.8433    0.0856    0.0000 C   0  0  0  0  0  0  0  0  0  0  0  0
   -3.0414   -0.7152    0.0000 C   0  0  0  0  0  0  0  0  0  0  0  0
   -2.6451    0.8865    0.0000 C   0  0  0  0  0  0  0  0  0  0  0  0
   -2.0424   -0.1125    0.0000 C   0  0  0  0  0  0  0  0  0  0  0  0
   -1.8136   -0.9052    0.0000 O   0  0  0  0  0  0  0  0  0  0  0  0
   -1.4704    0.4819    0.0000 C   0  0  0  0  0  0  0  0  0  0  0  0
   -0.6696    0.2838    0.0000 C   0  0  0  0  0  0  0  0  0  0  0  0
   -0.0975    0.8783    0.0000 C   0  0  0  0  0  0  0  0  0  0  0  0
   -0.2422    1.6905    0.0000 C   0  0  0  0  0  0  0  0  0  0  0  0
    0.4855    2.0791    0.0000 C   0  0  0  0  0  0  0  0  0  0  0  0
    1.0800    1.5070    0.0000 C   0  0  0  0  0  0  0  0  0  0  0  0
    1.8922    1.6517    0.0000 O   0  0  0  0  0  0  0  0  0  0  0  0
    0.7197    0.7649    0.0000 C   0  0  0  0  0  0  0  0  0  0  0  0
    1.1083    0.0372    0.0000 C   0  0  0  0  0  0  0  0  0  0  0  0
    1.9328    0.0098    0.0000 C   0  0  0  0  0  0  0  0  0  0  0  0
    2.3214   -0.7179    0.0000 C   0  0  0  0  0  0  0  0  0  0  0  0
    3.1460   -0.7452    0.0000 C   0  0  0  0  0  0  0  0  0  0  0  0
    3.5346   -1.4730    0.0000 C   0  0  0  0  0  0  0  0  0  0  0  0
    4.3591   -1.5003    0.0000 C   0  0  0  0  0  0  0  0  0  0  0  0
    4.7477   -2.2280    0.0000 C   0  0  0  0  0  0  0  0  0  0  0  0
    5.5723   -2.2554    0.0000 O   0  0  0  0  0  0  0  0  0  0  0  0
    4.3118   -2.9285    0.0000 O   0  0  0  0  0  0  0  0  0  0  0  0
  1  2  1  0  0  0  0
  2  3  1  0  0  0  0
  3  4  1  0  0  0  0
  4  5  1  0  0  0  0
  5  6  1  0  0  0  0
  5  7  1  0  0  0  0
  5  8  1  0  0  0  0
  8  9  1  0  0  0  0
 10  8  1  4  0  0  0
 10 11  2  0  0  0  0
 11 12  1  0  0  0  0
 12 13  1  0  0  0  0
 13 14  1  0  0  0  0
 14 15  1  0  0  0  0
 15 16  2  0  0  0  0
 15 17  1  0  0  0  0
 12 17  1  0  0  0  0
 17 18  1  0  0  0  0
 19 18  1  4  0  0  0
 19 20  2  0  0  0  0
 20 21  1  0  0  0  0
 21 22  1  0  0  0  0
 22 23  1  0  0  0  0
 23 24  1  0  0  0  0
 24 25  2  0  0  0  0
 24 26  1  0  0  0  0
M  END

> <ChembankId>
3653050

> <SMILES>
CCCCC(C)(C)C(O)C=CC1CCC(=O)C1CC=CCCCC(=O)O

> <InChI>


$$$$
